/*--------------------------------*- C++ -*----------------------------------*\
| =========                 |                                                 |
| \\      /  F ield         | OpenFOAM: The Open Source CFD Toolbox           |
|  \\    /   O peration     | Version:  2.1.1                                 |
|   \\  /    A nd           | Web:      www.OpenFOAM.org                      |
|    \\/     M anipulation  |                                                 |
\*---------------------------------------------------------------------------*/
FoamFile
{
    version     2.0;
    format      ascii;
    class       volScalarField;
    location    "0";
    object      PO2_RBC;
}
// * * * * * * * * * * * * * * * * * * * * * * * * * * * * * * * * * * * * * //

#include "../../initialConditions"

dimensions      [ 0 0 0 0 0 0 0 ];

internalField   uniform 50;

boundaryField
{
    frontWedge
    {
        type            wedge;
    }
    backWedge
    {
        type            wedge;
    }
    membrane
    {
        type            calculated;
        value           $internalField;
    }
    axis
    {
        type            empty;
    }
}


// ************************************************************************* //
