// -*- C++ -*-
// File generated by PyFoam - sorry for the ugliness

FoamFile
{
 version 2.0;
 format ascii;
 class dictionary;
 location "constant";
 object edgeVelocities;
}

edgeVelocities
  6860
  (

    (
      1.00452388431

(0.0013975 0.00135429 0.00282337)    )

    (
      1.00849307286

(0.0013975 0.00131578 0.00274656)    )

    (
      1.01262028075

(0.0013975 0.00135429 0.00267721)    )

    (
      1.01402206783

(0.0013975 0.00135429 0.00274656)    )

    (
      1.01650349131

(0.0013975 0.0013975 0.00267721)    )

    (
      1.01788650092

(0.0013975 0.0013975 0.00274656)    )

    (
      1.02629014991

(0.00135429 0.0013975 0.00267721)    )

    (
      1.02678033162

(0.00135429 0.0013975 0.00274656)    )

    (
      1.02734132198

(0.00135429 0.0013975 0.00274656)    )

    (
      1.02821728306

(0.0013975 0.0013975 0.00267721)    )

    (
      1.03097722787

(0.00135429 0.0013975 0.00274656)    )

    (
      1.03482504344

(0.00135429 0.00135429 0.00282337)    )

    (
      1.03763928055

(0.0013975 0.00135429 0.00274656)    )

    (
      1.03931386182

(0.0013975 0.00135429 0.00274656)    )

    (
      1.03955403666

(0.0013975 0.0013975 0.00267721)    )

    (
      1.04462615608

(0.00135429 0.00135429 0.00274656)    )

    (
      1.04654091219

(0.00135429 0.00135429 0.00282337)    )

    (
      1.04935794814

(0.0013975 0.00135429 0.00274656)    )

    (
      1.05589314305

(0.0013975 0.00131578 0.00282337)    )

    (
      1.05666841892

(0.0013975 0.00135429 0.00274656)    )

    (
      1.05778621981

(0.00135429 0.00135429 0.00282337)    )

    (
      1.06173105186

(0.0013975 0.00135429 0.00274656)    )

    (
      1.06467786362

(0.0013975 0.0013975 0.00267721)    )

    (
      1.06750182858

(0.00135429 0.0013975 0.00274656)    )

    (
      1.07242620836

(0.0013975 0.00135429 0.00267721)    )

    (
      1.07406181026

(0.0013975 0.00135429 0.00267721)    )

    (
      1.07439056428

(0.0013975 0.0013975 0.00261408)    )

    (
      1.07490856408

(0.0013975 0.0013975 0.00267721)    )

    (
      1.0802155078

(0.00135429 0.00135429 0.00274656)    )

    (
      1.08316231957

(0.00135429 0.00135429 0.00282337)    )

    (
      1.08594258162

(0.00135429 0.00135429 0.00274656)    )

    (
      1.08801302647

(0.0013975 0.00135429 0.00267721)    )

    (
      1.09083281321

(0.0013975 0.00135429 0.00274656)    )

    (
      1.09274756932

(0.0013975 0.00135429 0.00282337)    )

    (
      1.09700435562

(0.0013975 0.00131578 0.00274656)    )

    (
      1.10063692219

(0.0013975 0.00135429 0.00267721)    )

    (
      1.10418900231

(0.0013975 0.00135429 0.00274656)    )

    (
      1.10625944716

(0.00135429 0.00131578 0.00282337)    )

    (
      1.10679048222

(0.0013975 0.00131578 0.00274656)    )

    (
      1.10854959388

(0.0013975 0.00131578 0.00274656)    )

    (
      1.10870523833

(0.0013975 0.00135429 0.00267721)    )

    (
      1.11545417159

(0.00135429 0.00131578 0.00274656)    )

    (
      1.11716032661

(0.00135429 0.00135429 0.00267721)    )

    (
      1.11913663989

(0.00135429 0.00135429 0.00274656)    )

    (
      1.12393110171

(0.00135429 0.00135429 0.00267721)    )

    (
      1.12524862717

(0.00135429 0.00135429 0.00274656)    )

    (
      1.12704312588

(0.00135429 0.00135429 0.00267721)    )

    (
      1.12716649842

(0.00135429 0.00135429 0.00274656)    )

    (
      1.13545117674

(0.00131578 0.00131578 0.00282337)    )

    (
      1.13599159443

(0.00135429 0.00131578 0.00274656)    )

    (
      1.13763362205

(0.00135429 0.00131578 0.00274656)    )

    (
      1.13790635054

(0.00135429 0.00135429 0.00267721)    )

    (
      1.14226704534

(0.00135429 0.00135429 0.00274656)    )

    (
      1.14326697365

(0.00135429 0.00135429 0.00267721)    )

    (
      1.14539965205

(0.00135429 0.00131578 0.00274656)    )

    (
      1.14565930745

(0.00135429 0.00135429 0.00267721)    )

    (
      1.15255128189

(0.00135429 0.00135429 0.00261408)    )

    (
      1.15463462871

(0.00135429 0.00131578 0.00267721)    )

    (
      1.15659898463

(0.00135429 0.00131578 0.00274656)    )

    (
      1.15711187323

(0.00135429 0.00135429 0.00267721)    )

    (
      1.16197222401

(0.00135429 0.00135429 0.00274656)    )

    (
      1.16253134381

(0.0013975 0.00135429 0.00267721)    )

    (
      1.1643568005

(0.0013975 0.00135429 0.00274656)    )

    (
      1.16555692644

(0.0013975 0.00135429 0.00267721)    )

    (
      1.17121768689

(0.00135429 0.00135429 0.00274656)    )

    (
      1.17416054719

(0.0013975 0.00135429 0.00267721)    )

    (
      1.17566620658

(0.0013975 0.00135429 0.00274656)    )

    (
      1.17593681389

(0.0013975 0.00135429 0.00274656)    )

    (
      1.17611332107

(0.0013975 0.0013975 0.00267721)    )

    (
      1.18108857854

(0.0013975 0.00135429 0.00274656)    )

    (
      1.18206458296

(0.00144658 0.00135429 0.00267721)    )

    (
      1.18406458337

(0.00144658 0.0013975 0.00261408)    )

    (
      1.1841213043

(0.00144658 0.0013975 0.00267721)    )

    (
      1.19280115686

(0.0013975 0.00135429 0.00274656)    )

    (
      1.19471591297

(0.0013975 0.00135429 0.00282337)    )

    (
      1.19539715375

(0.0013975 0.0013975 0.00274656)    )

    (
      1.19641689736

(0.00135429 0.0013975 0.00274656)    )

    (
      1.19731190986

(0.0013975 0.0013975 0.00267721)    )

    (
      1.20060566733

(0.0013975 0.0013975 0.00274656)    )

    (
      1.20255516791

(0.0013975 0.00135429 0.00282337)    )

    (
      1.21145434226

(0.00135429 0.0013975 0.00274656)    )

    (
      1.2134360355

(0.00135429 0.0013975 0.00282337)    )

    (
      1.21459863251

(0.0013975 0.0013975 0.00274656)    )

    (
      1.21531828144

(0.0013975 0.0013975 0.00282337)    )

    (
      1.22216095988

(0.0013975 0.0013975 0.00274656)    )

    (
      1.22596709478

(0.0013975 0.0013975 0.00267721)    )

    (
      1.22952488732

(0.0013975 0.0013975 0.00274656)    )

    (
      1.23142870135

(0.0013975 0.00144658 0.00267721)    )

    (
      1.23273466316

(0.0013975 0.0013975 0.00274656)    )

    (
      1.23873467423

(0.0013975 0.0013975 0.00267721)    )

    (
      1.2405337619

(0.0013975 0.0013975 0.00274656)    )

    (
      1.24433989679

(0.0013975 0.00135429 0.00282337)    )

    (
      1.24730271146

(0.0013975 0.0013975 0.00274656)    )

    (
      1.24962881905

(0.00135429 0.0013975 0.00282337)    )

    (
      1.25266739258

(0.0013975 0.00135429 0.00274656)    )

    (
      1.25681684765

(0.0013975 0.00135429 0.00282337)    )

    (
      1.26263147557

(0.00135429 0.00135429 0.00274656)    )

    (
      1.26525971168

(0.00135429 0.00135429 0.00282337)    )

    (
      1.26637454584

(0.0013975 0.00135429 0.00274656)    )

    (
      1.2706781871

(0.00135429 0.00135429 0.00282337)    )

    (
      1.27264483724

(0.00135429 0.0013975 0.00274656)    )

    (
      1.27828226562

(0.0013975 0.00135429 0.00267721)    )

    (
      1.28081379349

(0.0013975 0.00135429 0.00274656)    )

    (
      1.28205701776

(0.00135429 0.0013975 0.00267721)    )

    (
      1.28465360183

(0.00135429 0.0013975 0.00274656)    )

    (
      1.28966620077

(0.00135429 0.0013975 0.00267721)    )

    (
      1.28978433884

(0.00135429 0.0013975 0.00267721)    )

    (
      1.29101289127

(0.00135429 0.0013975 0.00274656)    )

    (
      1.29161496069

(0.0013975 0.0013975 0.00267721)    )

    (
      1.29678075551

(0.00135429 0.00135429 0.00274656)    )

    (
      1.3004915868

(0.00135429 0.00135429 0.00282337)    )

    (
      1.30071682491

(0.0013975 0.00135429 0.00274656)    )

    (
      1.30458795941

(0.00135429 0.00135429 0.00267721)    )

    (
      1.30811804214

(0.00135429 0.00135429 0.00274656)    )

    (
      1.31003279825

(0.00131578 0.00135429 0.00282337)    )

    (
      1.31283309669

(0.00135429 0.00131578 0.00274656)    )

    (
      1.3168858592

(0.00135429 0.00135429 0.00267721)    )

    (
      1.31898522804

(0.00135429 0.00135429 0.00274656)    )

    (
      1.32285636254

(0.00135429 0.00131578 0.00282337)    )

    (
      1.32455709367

(0.0013975 0.00131578 0.00274656)    )

    (
      1.32526355011

(0.0013975 0.00131578 0.00274656)    )

    (
      1.32647184978

(0.0013975 0.00135429 0.00267721)    )

    (
      1.33116152712

(0.0013975 0.00131578 0.00274656)    )

    (
      1.33193748517

(0.00144658 0.00131578 0.00267721)    )

    (
      1.33529917192

(0.0013975 0.00131578 0.00274656)    )

    (
      1.3361560536

(0.0013975 0.00135429 0.00267721)    )

    (
      1.34030948227

(0.00144658 0.00135429 0.00261408)    )

    (
      1.34215662887

(0.00144658 0.00135429 0.00261408)    )

    (
      1.34232127668

(0.00144658 0.0013975 0.00255622)    )

    (
      1.3432298317

(0.00144658 0.0013975 0.00261408)    )

    (
      1.3452416261

(0.0013975 0.00135429 0.00267721)    )

    (
      1.35072736189

(0.0013975 0.00135429 0.00274656)    )

    (
      1.35357266987

(0.0013975 0.0013975 0.00267721)    )

    (
      1.35489442216

(0.0013975 0.00135429 0.00274656)    )

    (
      1.35894297713

(0.00135429 0.00135429 0.00282337)    )

    (
      1.36080564666

(0.00135429 0.00135429 0.00290925)    )

    (
      1.36095223583

(0.00135429 0.0013975 0.00282337)    )

    (
      1.36239065974

(0.00135429 0.0013975 0.00282337)    )

    (
      1.36281490536

(0.0013975 0.0013975 0.00274656)    )

    (
      1.37169775361

(0.00135429 0.00135429 0.00282337)    )

    (
      1.37408883494

(0.0013975 0.00135429 0.00274656)    )

    (
      1.37586322545

(0.0013975 0.00131578 0.00274656)    )

    (
      1.37600359105

(0.0013975 0.00135429 0.00267721)    )

    (
      1.3791164518

(0.00135429 0.00135429 0.00274656)    )

    (
      1.3810312079

(0.00135429 0.00135429 0.00282337)    )

    (
      1.38527327334

(0.00135429 0.0013975 0.00274656)    )

    (
      1.38616472562

(0.00135429 0.0013975 0.00274656)    )

    (
      1.38718802945

(0.0013975 0.0013975 0.00267721)    )

    (
      1.39238459036

(0.00135429 0.00135429 0.00274656)    )

    (
      1.39429934647

(0.00135429 0.00135429 0.00282337)    )

    (
      1.3945465607

(0.00135429 0.0013975 0.00274656)    )

    (
      1.39480863304

(0.00135429 0.0013975 0.00274656)    )

    (
      1.39646131681

(0.0013975 0.0013975 0.00267721)    )

    (
      1.40378711468

(0.00135429 0.00135429 0.00274656)    )

    (
      1.40570187078

(0.00135429 0.00131578 0.00282337)    )

    (
      1.40669075708

(0.00135429 0.00135429 0.00274656)    )

    (
      1.40762515498

(0.00135429 0.00135429 0.00274656)    )

    (
      1.40860551319

(0.0013975 0.00135429 0.00267721)    )

    (
      1.41301991287

(0.00135429 0.00135429 0.00274656)    )

    (
      1.41493466898

(0.00135429 0.00131578 0.00282337)    )

    (
      1.41879265638

(0.0013975 0.00131578 0.00274656)    )

    (
      1.4191737351

(0.0013975 0.00131578 0.00274656)    )

    (
      1.42070741249

(0.0013975 0.00135429 0.00267721)    )

    (
      1.42500748

(0.00135429 0.00131578 0.00274656)    )

    (
      1.4269222361

(0.00135429 0.00131578 0.00282337)    )

    (
      1.42810253005

(0.00135429 0.00135429 0.00274656)    )

    (
      1.43199812881

(0.0013975 0.00135429 0.00267721)    )

    (
      1.43556755203

(0.00135429 0.00135429 0.00261408)    )

    (
      1.43724377315

(0.00135429 0.00135429 0.00267721)    )

    (
      1.43920812907

(0.00135429 0.00135429 0.00274656)    )

    (
      1.44243699434

(0.0013975 0.00135429 0.00267721)    )

    (
      1.44495843523

(0.0013975 0.0013975 0.00261408)    )

    (
      1.44667409587

(0.0013975 0.0013975 0.00267721)    )

    (
      1.45067060616

(0.00135429 0.00135429 0.00274656)    )

    (
      1.45291208656

(0.00135429 0.0013975 0.00267721)    )

    (
      1.45418196611

(0.00135429 0.0013975 0.00274656)    )

    (
      1.45538764063

(0.0013975 0.0013975 0.00267721)    )

    (
      1.46106429152

(0.00135429 0.0013975 0.00274656)    )

    (
      1.46291135631

(0.00135429 0.00144658 0.00267721)    )

    (
      1.46353788607

(0.00135429 0.00144658 0.00274656)    )

    (
      1.46609462369

(0.0013975 0.0013975 0.00267721)    )

    (
      1.47144291539

(0.00135429 0.0013975 0.00274656)    )

    (
      1.47388640511

(0.00135429 0.0013975 0.00282337)    )

    (
      1.47755392732

(0.00135429 0.0013975 0.00274656)    )

    (
      1.48049866528

(0.00135429 0.0013975 0.00267721)    )

    (
      1.48118147024

(0.00135429 0.0013975 0.00274656)    )

    (
      1.4843489178

(0.00135429 0.0013975 0.00282337)    )

    (
      1.48964674752

(0.0013975 0.00135429 0.00274656)    )

    (
      1.49562758859

(0.00135429 0.00131578 0.00282337)    )

    (
      1.49664678006

(0.00135429 0.00135429 0.00274656)    )

    (
      1.49854382649

(0.00135429 0.00135429 0.00282337)    )

    (
      1.50232801566

(0.0013975 0.00135429 0.00274656)    )

    (
      1.50771699451

(0.00135429 0.00135429 0.00282337)    )

    (
      1.50819875252

(0.00135429 0.0013975 0.00274656)    )

    (
      1.51055801202

(0.0013975 0.0013975 0.00267721)    )

    (
      1.51484017987

(0.00135429 0.00135429 0.00274656)    )

    (
      1.51627203101

(0.00135429 0.0013975 0.00267721)    )

    (
      1.52074005139

(0.00135429 0.0013975 0.00274656)    )

    (
      1.524339148

(0.00135429 0.0013975 0.00267721)    )

    (
      1.52451860523

(0.00135429 0.0013975 0.00267721)    )

    (
      1.52630350392

(0.0013975 0.0013975 0.00261408)    )

    (
      1.52669262898

(0.0013975 0.0013975 0.00267721)    )

    (
      1.5291130027

(0.00135429 0.0013975 0.00274656)    )

    (
      1.53471889734

(0.00135429 0.00135429 0.00282337)    )

    (
      1.53595313711

(0.0013975 0.00135429 0.00274656)    )

    (
      1.54263868367

(0.00135429 0.00131578 0.00282337)    )

    (
      1.54276256051

(0.00135429 0.00135429 0.00274656)    )

    (
      1.54454997576

(0.00135429 0.00135429 0.00282337)    )

    (
      1.54553284023

(0.0013975 0.00135429 0.00274656)    )

    (
      1.55412675471

(0.00135429 0.00131578 0.00282337)    )

    (
      1.55449446952

(0.00135429 0.00135429 0.00274656)    )

    (
      1.55838165744

(0.0013975 0.00135429 0.00267721)    )

    (
      1.5609953552

(0.0013975 0.00135429 0.00274656)    )

    (
      1.56379311916

(0.0013975 0.00135429 0.00282337)    )

    (
      1.56559396236

(0.0013975 0.0013975 0.00274656)    )

    (
      1.57217269579

(0.00135429 0.0013975 0.00267721)    )

    (
      1.57243392367

(0.00135429 0.0013975 0.00267721)    )

    (
      1.57272871268

(0.00135429 0.0013975 0.00274656)    )

    (
      1.57410149127

(0.0013975 0.0013975 0.00267721)    )

    (
      1.57668103382

(0.0013975 0.0013975 0.00274656)    )

    (
      1.58314701956

(0.00144658 0.00135429 0.00267721)    )

    (
      1.58389662837

(0.0013975 0.00135429 0.00274656)    )

    (
      1.58480163237

(0.0013975 0.00135429 0.00274656)    )

    (
      1.58508070322

(0.0013975 0.0013975 0.00267721)    )

    (
      1.59061510494

(0.0013975 0.0013975 0.00274656)    )

    (
      1.59252986104

(0.0013975 0.0013975 0.00282337)    )

    (
      1.59780734488

(0.0013975 0.00144658 0.00274656)    )

    (
      1.59859482568

(0.0013975 0.00144658 0.00274656)    )

    (
      1.59972210099

(0.0013975 0.00144658 0.00267721)    )

    (
      1.60140517724

(0.0013975 0.00144658 0.00274656)    )

    (
      1.60331993334

(0.0013975 0.00144658 0.00282337)    )

    (
      1.60804143402

(0.0013975 0.00144658 0.00274656)    )

    (
      1.61365668183

(0.0013975 0.00144658 0.00267721)    )

    (
      1.61598106962

(0.0013975 0.00144658 0.00274656)    )

    (
      1.61789582573

(0.0013975 0.0013975 0.00282337)    )

    (
      1.62607594645

(0.00135429 0.0013975 0.00290925)    )

    (
      1.62923249455

(0.0013975 0.0013975 0.00282337)    )

    (
      1.63144242189

(0.00135429 0.00135429 0.00290925)    )

    (
      1.63343785281

(0.00135429 0.0013975 0.00282337)    )

    (
      1.63966679134

(0.0013975 0.00135429 0.00274656)    )

    (
      1.64663295886

(0.00135429 0.0013975 0.00267721)    )

    (
      1.64709453829

(0.00135429 0.0013975 0.00274656)    )

    (
      1.65147989119

(0.00135429 0.00135429 0.00282337)    )

    (
      1.65420894132

(0.00135429 0.00135429 0.00274656)    )

    (
      1.65780669851

(0.00135429 0.00135429 0.00282337)    )

    (
      1.66020910308

(0.00131578 0.00135429 0.00274656)    )

    (
      1.66130043321

(0.00131578 0.00135429 0.00274656)    )

    (
      1.66212385918

(0.00135429 0.00135429 0.00267721)    )

    (
      1.66477256624

(0.00135429 0.00135429 0.00274656)    )

    (
      1.66599770574

(0.00135429 0.0013975 0.00267721)    )

    (
      1.67257939443

(0.00131578 0.0013975 0.00274656)    )

    (
      1.67332100478

(0.00135429 0.0013975 0.00267721)    )

    (
      1.67878469324

(0.00135429 0.00135429 0.00274656)    )

    (
      1.68069944934

(0.00135429 0.00135429 0.00282337)    )

    (
      1.68227732391

(0.00131578 0.0013975 0.00274656)    )

    (
      1.6843306391

(0.00135429 0.0013975 0.00267721)    )

    (
      1.68446570392

(0.00135429 0.0013975 0.00274656)    )

    (
      1.6907754135

(0.00135429 0.0013975 0.00267721)    )

    (
      1.69152885721

(0.00135429 0.0013975 0.00267721)    )

    (
      1.691644767

(0.00135429 0.0013975 0.00274656)    )

    (
      1.6927121207

(0.00135429 0.0013975 0.00267721)    )

    (
      1.7006856797

(0.0013975 0.0013975 0.00261408)    )

    (
      1.7007097436

(0.0013975 0.0013975 0.00267721)    )

    (
      1.70281624783

(0.00135429 0.0013975 0.00274656)    )

    (
      1.70414553349

(0.00135429 0.00144658 0.00267721)    )

    (
      1.70939003505

(0.00135429 0.0013975 0.00274656)    )

    (
      1.71130479116

(0.00135429 0.0013975 0.00282337)    )

    (
      1.71269679251

(0.0013975 0.00135429 0.00274656)    )

    (
      1.71600126968

(0.00135429 0.0013975 0.00267721)    )

    (
      1.71911675925

(0.00135429 0.0013975 0.00274656)    )

    (
      1.72252226328

(0.00131578 0.0013975 0.00282337)    )

    (
      1.72317163079

(0.00135429 0.00135429 0.00274656)    )

    (
      1.73096186567

(0.00135429 0.00135429 0.00282337)    )

    (
      1.73360805181

(0.00135429 0.00135429 0.00274656)    )

    (
      1.73419234647

(0.00135429 0.00135429 0.00282337)    )

    (
      1.73616678552

(0.00135429 0.00135429 0.00274656)    )

    (
      1.74124698824

(0.00135429 0.00135429 0.00282337)    )

    (
      1.74312006546

(0.00135429 0.0013975 0.00274656)    )

    (
      1.74453955605

(0.00135429 0.00135429 0.00274656)    )

    (
      1.74503482156

(0.0013975 0.00135429 0.00267721)    )

    (
      1.75187781293

(0.00135429 0.00131578 0.00274656)    )

    (
      1.7523486259

(0.0013975 0.00131578 0.00267721)    )

    (
      1.75447325633

(0.0013975 0.00135429 0.00261408)    )

    (
      1.75454906187

(0.0013975 0.00135429 0.00267721)    )

    (
      1.76173619385

(0.00135429 0.00131578 0.00274656)    )

    (
      1.76365094996

(0.00135429 0.00131578 0.00282337)    )

    (
      1.7638735425

(0.0013975 0.00131578 0.00274656)    )

    (
      1.76626789902

(0.0013975 0.00135429 0.00267721)    )

    (
      1.77090277513

(0.00135429 0.00135429 0.00274656)    )

    (
      1.77297375884

(0.00135429 0.00131578 0.00282337)    )

    (
      1.77524760289

(0.00135429 0.00135429 0.00274656)    )

    (
      1.77780695022

(0.00135429 0.00135429 0.00267721)    )

    (
      1.78224357861

(0.00135429 0.00135429 0.00274656)    )

    (
      1.78268140397

(0.00135429 0.0013975 0.00267721)    )

    (
      1.78468861709

(0.00135429 0.00135429 0.00274656)    )

    (
      1.79068505724

(0.0013975 0.00135429 0.00267721)    )

    (
      1.79286946063

(0.0013975 0.0013975 0.00261408)    )

    (
      1.79371060342

(0.0013975 0.0013975 0.00267721)    )

    (
      1.79633624805

(0.0013975 0.0013975 0.00274656)    )

    (
      1.79910416109

(0.0013975 0.00135429 0.00267721)    )

    (
      1.80115034324

(0.0013975 0.00135429 0.00274656)    )

    (
      1.80399627193

(0.0013975 0.0013975 0.00267721)    )

    (
      1.80772879593

(0.0013975 0.0013975 0.00261408)    )

    (
      1.80927199626

(0.0013975 0.0013975 0.00267721)    )

    (
      1.81145639964

(0.0013975 0.00135429 0.00274656)    )

    (
      1.81376574934

(0.0013975 0.0013975 0.00267721)    )

    (
      1.81768314442

(0.00135429 0.0013975 0.00274656)    )

    (
      1.82252358934

(0.00135429 0.0013975 0.00282337)    )

    (
      1.82606289638

(0.00135429 0.0013975 0.00290925)    )

    (
      1.82873248216

(0.00135429 0.0013975 0.00282337)    )

    (
      1.82947389008

(0.00135429 0.00135429 0.00282337)    )

    (
      1.83059515169

(0.00135429 0.0013975 0.00274656)    )

    (
      1.83176004092

(0.00135429 0.0013975 0.00282337)    )

    (
      1.83853397402

(0.00135429 0.0013975 0.00274656)    )

    (
      1.84005132344

(0.00135429 0.0013975 0.00274656)    )

    (
      1.84044873013

(0.00135429 0.00144658 0.00267721)    )

    (
      1.84685735646

(0.00135429 0.0013975 0.00274656)    )

    (
      1.84830527625

(0.0013975 0.0013975 0.00267721)    )

    (
      1.84878420549

(0.0013975 0.0013975 0.00274656)    )

    (
      1.85691245003

(0.00135429 0.00135429 0.00282337)    )

    (
      1.85837532095

(0.0013975 0.00135429 0.00274656)    )

    (
      1.85878629929

(0.0013975 0.00135429 0.00282337)    )

    (
      1.85920141502

(0.0013975 0.00135429 0.00282337)    )

    (
      1.86024917021

(0.0013975 0.0013975 0.00274656)    )

    (
      1.86644012133

(0.0013975 0.0013975 0.00282337)    )

    (
      1.86852991172

(0.00144658 0.0013975 0.00274656)    )

    (
      1.87186999488

(0.0013975 0.0013975 0.00267721)    )

    (
      1.87659997385

(0.0013975 0.0013975 0.00274656)    )

    (
      1.87851472996

(0.0013975 0.0013975 0.00282337)    )

    (
      1.88126903316

(0.00144658 0.0013975 0.00274656)    )

    (
      1.88677688943

(0.00144658 0.0013975 0.00282337)    )

    (
      1.88724935405

(0.00144658 0.00144658 0.00274656)    )

    (
      1.89010376087

(0.0013975 0.00144658 0.00282337)    )

    (
      1.89920586159

(0.0013975 0.0013975 0.00290925)    )

    (
      1.89980637981

(0.00144658 0.0013975 0.00282337)    )

    (
      1.90159082149

(0.0013975 0.0013975 0.00282337)    )

    (
      1.90166904934

(0.0013975 0.00144658 0.00274656)    )

    (
      1.90511173647

(0.0013975 0.0013975 0.00282337)    )

    (
      1.91760938239

(0.00135429 0.0013975 0.00290925)    )

    (
      1.91853857931

(0.0013975 0.0013975 0.00282337)    )

    (
      1.9194437857

(0.0013975 0.0013975 0.00290925)    )

    (
      1.92189294733

(0.0013975 0.0013975 0.00282337)    )

    (
      1.93089051373

(0.0013975 0.0013975 0.00274656)    )

    (
      1.93244930978

(0.0013975 0.00135429 0.00274656)    )

    (
      1.93280526984

(0.0013975 0.0013975 0.00267721)    )

    (
      1.93641223152

(0.0013975 0.0013975 0.00274656)    )

    (
      1.93993698607

(0.00135429 0.0013975 0.00282337)    )

    (
      1.9418616875

(0.0013975 0.0013975 0.00274656)    )

    (
      1.94913233384

(0.0013975 0.00135429 0.00282337)    )

    (
      1.95099500337

(0.0013975 0.00135429 0.00290925)    )

    (
      1.952328091

(0.00135429 0.0013975 0.00282337)    )

    (
      1.95292830874

(0.00135429 0.0013975 0.00282337)    )

    (
      1.95419076053

(0.0013975 0.0013975 0.00274656)    )

    (
      1.95988311595

(0.0013975 0.00135429 0.00282337)    )

    (
      1.96241599459

(0.00135429 0.0013975 0.00274656)    )

    (
      1.96760077594

(0.0013975 0.0013975 0.00267721)    )

    (
      1.97048250579

(0.0013975 0.0013975 0.00274656)    )

    (
      1.9723972619

(0.0013975 0.0013975 0.00282337)    )

    (
      1.97369083956

(0.00135429 0.00144658 0.00274656)    )

    (
      1.98065715103

(0.00135429 0.0013975 0.00282337)    )

    (
      1.98280033735

(0.00135429 0.0013975 0.00274656)    )

    (
      1.9857820016

(0.00135429 0.00135429 0.00282337)    )

    (
      1.98931417035

(0.00135429 0.0013975 0.00274656)    )

    (
      1.99166485608

(0.0013975 0.0013975 0.00267721)    )

    (
      1.9917385643

(0.0013975 0.0013975 0.00274656)    )

    (
      2.00090799287

(0.00135429 0.00135429 0.00282337)    )

    (
      2.00351246948

(0.0013975 0.00135429 0.00274656)    )

    (
      2.00412940455

(0.0013975 0.00135429 0.00274656)    )

    (
      2.00542722559

(0.0013975 0.0013975 0.00267721)    )

    (
      2.00750010738

(0.0013975 0.0013975 0.00274656)    )

    (
      2.00985079311

(0.00135429 0.0013975 0.00282337)    )

    (
      2.01248400208

(0.0013975 0.00135429 0.00274656)    )

    (
      2.01528240024

(0.0013975 0.0013975 0.00267721)    )

    (
      2.02186187303

(0.00135429 0.0013975 0.00274656)    )

    (
      2.02377662914

(0.00135429 0.00135429 0.00282337)    )

    (
      2.02503055787

(0.00135429 0.0013975 0.00274656)    )

    (
      2.02773556818

(0.0013975 0.0013975 0.00267721)    )

    (
      2.03089952453

(0.0013975 0.0013975 0.00274656)    )

    (
      2.03369792269

(0.0013975 0.0013975 0.00282337)    )

    (
      2.03939471843

(0.00144658 0.00135429 0.00274656)    )

    (
      2.040690707

(0.00144658 0.00135429 0.00274656)    )

    (
      2.04130947454

(0.00144658 0.0013975 0.00267721)    )

    (
      2.04320353644

(0.0013975 0.0013975 0.00274656)    )

    (
      2.04590854675

(0.0013975 0.0013975 0.00282337)    )

    (
      2.05154025133

(0.00144658 0.00135429 0.00274656)    )

    (
      2.05360612304

(0.00144658 0.0013975 0.00267721)    )

    (
      2.05759022579

(0.00144658 0.0013975 0.00274656)    )

    (
      2.0595049819

(0.00144658 0.0013975 0.00282337)    )

    (
      2.06603716577

(0.0013975 0.0013975 0.00274656)    )

    (
      2.06966275333

(0.0013975 0.0013975 0.00282337)    )

    (
      2.07132139925

(0.00144658 0.0013975 0.00274656)    )

    (
      2.07168224366

(0.00144658 0.0013975 0.00282337)    )

    (
      2.07927828616

(0.0013975 0.0013975 0.00274656)    )

    (
      2.08398293905

(0.0013975 0.0013975 0.00282337)    )

    (
      2.08916854668

(0.0013975 0.0013975 0.00290925)    )

    (
      2.09190534623

(0.00144658 0.00135429 0.00282337)    )

    (
      2.09449197476

(0.00144658 0.0013975 0.00274656)    )

    (
      2.09710340199

(0.0013975 0.0013975 0.00282337)    )

    (
      2.10534293493

(0.0013975 0.0013975 0.00274656)    )

    (
      2.10681410287

(0.0013975 0.0013975 0.00274656)    )

    (
      2.10725769103

(0.00144658 0.0013975 0.00267721)    )

    (
      2.10987321759

(0.00144658 0.0013975 0.00274656)    )

    (
      2.11253217705

(0.00144658 0.00135429 0.00282337)    )

    (
      2.12090309579

(0.0013975 0.0013975 0.00274656)    )

    (
      2.12337946322

(0.0013975 0.0013975 0.00282337)    )

    (
      2.12524213275

(0.0013975 0.00135429 0.00290925)    )

    (
      2.12639112031

(0.0013975 0.00135429 0.00282337)    )

    (
      2.13207723474

(0.0013975 0.0013975 0.00274656)    )

    (
      2.13882851271

(0.00135429 0.00135429 0.00282337)    )

    (
      2.14179188597

(0.00135429 0.00135429 0.00274656)    )

    (
      2.14411937

(0.00135429 0.00135429 0.00267721)    )

    (
      2.14435989018

(0.00135429 0.00135429 0.00274656)    )

    (
      2.15020500771

(0.00135429 0.00135429 0.00282337)    )

    (
      2.15530566748

(0.00135429 0.0013975 0.00274656)    )

    (
      2.15657469283

(0.00135429 0.00135429 0.00274656)    )

    (
      2.15722042359

(0.00135429 0.00135429 0.00267721)    )

    (
      2.15992826591

(0.00135429 0.00135429 0.00274656)    )

    (
      2.16225574995

(0.00135429 0.00135429 0.00282337)    )

    (
      2.16604170159

(0.00135429 0.00135429 0.00274656)    )

    (
      2.16646775209

(0.00135429 0.00135429 0.00274656)    )

    (
      2.1679564577

(0.0013975 0.00135429 0.00267721)    )

    (
      2.17298205349

(0.00135429 0.0013975 0.00261408)    )

    (
      2.17363093234

(0.00135429 0.0013975 0.00267721)    )

    (
      2.17501655059

(0.0013975 0.0013975 0.00261408)    )

    (
      2.17560926456

(0.0013975 0.0013975 0.00267721)    )

    (
      2.1846975154

(0.00135429 0.00135429 0.00274656)    )

    (
      2.18658684285

(0.00135429 0.0013975 0.00267721)    )

    (
      2.18661293021

(0.00135429 0.0013975 0.00274656)    )

    (
      2.18745653344

(0.00135429 0.0013975 0.00274656)    )

    (
      2.18850225766

(0.0013975 0.0013975 0.00267721)    )

    (
      2.19158958489

(0.00135429 0.00135429 0.00274656)    )

    (
      2.19355779678

(0.00135429 0.00135429 0.00282337)    )

    (
      2.19664594497

(0.00135429 0.0013975 0.00274656)    )

    (
      2.19877992875

(0.0013975 0.0013975 0.00267721)    )

    (
      2.20493918775

(0.00135429 0.00135429 0.00274656)    )

    (
      2.20685394386

(0.00135429 0.00135429 0.00282337)    )

    (
      2.20990090577

(0.00135429 0.0013975 0.00274656)    )

    (
      2.214218968

(0.00135429 0.00135429 0.00267721)    )

    (
      2.21493900911

(0.00135429 0.00135429 0.00274656)    )

    (
      2.21707299289

(0.00135429 0.00135429 0.00282337)    )

    (
      2.21994540959

(0.00135429 0.0013975 0.00274656)    )

    (
      2.22094034691

(0.00135429 0.00135429 0.00274656)    )

    (
      2.2218601657

(0.0013975 0.00135429 0.00267721)    )

    (
      2.22820349864

(0.00135429 0.00135429 0.00274656)    )

    (
      2.23111430904
