// -*- C++ -*-
// File generated by PyFoam - sorry for the ugliness

FoamFile
{
 version 2.0;
 format ascii;
 class dictionary;
 location "constant";
 object graphDict;
}

adjacencyList
  (

    (
      0
      2
    )

    (
      1
      2
    )

    (
      2
      3
    )
  );

edgeIndices
(0 1 2);

edgeType straight;

segmentDiameters
  (

    (
      4e-06
    )

    (
      4e-06
    )

    (
      4e-06
    )
  );

tubeOptions
{
  useEffectiveDiameter no;
  outerInnerDiameterRatio 1.25;
}

vertexIndices
  (
    0
    1
    2
    3
  );

vertexPositions
  (

(-1e-05 3e-05 0)
(-1e-05 -3e-05 0)
(2e-05 0 0)
(7e-05 0 0)  );

