// -*- C++ -*-
// File generated by PyFoam - sorry for the ugliness

FoamFile
{
 version 2.0;
 format ascii;
 class dictionary;
 location "constant";
 object RBCPath;
}

RBCPath1
{
  edges
    (
      1
      1
      1
      1
      1
      1
      2
      2
      2
      2
      2
      2
      2
      2
      2
      2
    );
  index 1;
  sCoords
    (
      1.26846193317e-05
      1.80600582367e-05
      2.34905576225e-05
      2.53889861687e-05
      2.87495572683e-05
      3.06823123733e-05
      2.22044604925e-18
      1.31232097171e-06
      2.85311674261e-06
      2.22044604925e-18
      7.38896075784e-06
      1.79572313708e-05
      2.59028555015e-05
      3.05021996516e-05
      3.11618551473e-05
      4.47410003542e-05
    );
  times
    (
      1.00452388431
      1.00849307286
      1.01262028075
      1.01402206783
      1.01650349131
      1.01788650092
      1.02629014991
      1.02678033162
      1.02734132198
      1.02821728306
      1.03097722787
      1.03482504344
      1.03763928055
      1.03931386182
      1.03955403666
      1.04462615608
    );
}

RBCPath10
{
  edges
    (
      1
      1
      1
      1
      1
      1
      1
      1
      1
      1
      1
      1
      2
      2
      2
      2
      2
      2
    );
  index 10;
  sCoords
    (
      1.17408857326e-06
      2.19418138369e-06
      3.70800980166e-06
      9.05046290818e-06
      1.30413054779e-05
      1.69877948305e-05
      2.38696126641e-05
      2.60846946684e-05
      2.6529923483e-05
      2.72538279066e-05
      3.46702786199e-05
      3.86611211897e-05
      2.22044604925e-18
      5.68660869091e-06
      1.32357790722e-05
      1.8494778718e-05
      3.05132485992e-05
      4.04903241204e-05
    );
  times
    (
      1.05589314305
      1.05666841892
      1.05778621981
      1.06173105186
      1.06467786362
      1.06750182858
      1.07242620836
      1.07406181026
      1.07439056428
      1.07490856408
      1.0802155078
      1.08316231957
      1.08594258162
      1.08801302647
      1.09083281321
      1.09274756932
      1.09700435562
      1.10063692219
    );
}

RBCPath100
{
  edges
    (
      0
      0
      0
      0
      0
      0
      0
      0
      0
      0
      0
      0
      0
      2
      2
      2
      2
      2
      2
    );
  index 100;
  sCoords
    (
      5.54804108749e-06
      5.90181983004e-06
      6.30105011839e-06
      8.16019270752e-06
      1.17651018903e-05
      2.08013131473e-05
      2.18856848036e-05
      2.31504273694e-05
      2.35404287175e-05
      3.12747518428e-05
      3.39506223719e-05
      4.13259029203e-05
      4.24264068712e-05
      2.22044604925e-18
      4.50595398366e-06
      9.76495362946e-06
      2.30954827281e-05
      3.85181186218e-05
      4.47410003542e-05
    );
  times
    (
      1.57217269579
      1.57243392367
      1.57272871268
      1.57410149127
      1.57668103382
      1.58314701956
      1.58389662837
      1.58480163237
      1.58508070322
      1.59061510494
      1.59252986104
      1.59780734488
      1.59859482568
      1.59972210099
      1.60140517724
      1.60331993334
      1.60804143402
      1.61365668183
      1.61598106962
    );
}

RBCPath1000
{
  edges
    (
      1
      1
      1
      1
      1
      1
      1
      1
      1
      1
      2
      2
      2
      2
      2
    );
  index 1000;
  sCoords
    (
      1.71392370411e-06
      5.79163668703e-06
      7.11267236315e-06
      1.01372461795e-05
      1.7638291475e-05
      2.44883913834e-05
      2.72700086112e-05
      2.7842490108e-05
      3.31382768804e-05
      3.78929431982e-05
      2.22044604925e-18
      2.02069004731e-06
      1.66045239377e-05
      1.99796041078e-05
      4.10901952873e-05
    );
  times
    (
      6.94132166952
      6.94423953335
      6.94518481867
      6.94734909423
      6.95271657077
      6.95745193542
      6.95937482298
      6.95978447002
      6.96357394337
      6.96697621051
      6.97022019304
      6.97097496671
      6.976284814
      6.97754548317
      6.98523166612
    );
}

RBCPath1001
{
  edges
    (
      0
      0
      0
      0
      0
      0
      0
      0
      0
      0
      2
      2
      2
      2
      2
      2
      2
    );
  index 1001;
  sCoords
    (
      3.07942857907e-07
      3.23900317856e-06
      1.05081318439e-05
      1.69211966496e-05
      1.95253472145e-05
      2.0080128781e-05
      2.52121809039e-05
      2.98198428849e-05
      3.4213141344e-05
      3.52353250209e-05
      2.22044604925e-18
      3.37508017013e-06
      2.44856713497e-05
      3.33954760623e-05
      3.6288496537e-05
      3.73403925036e-05
      4.15474961828e-05
    );
  times
    (
      6.94518481867
      6.94734909423
      6.95271657077
      6.95745193542
      6.95937482298
      6.95978447002
      6.96357394337
      6.96697621051
      6.97022019304
      6.97097496671
      6.976284814
      6.97754548317
      6.98523166612
      6.9883874035
      6.98938182355
      6.98975439147
      6.99124449308
    );
}

RBCPath1002
{
  edges
    (
      0
      0
      0
      0
      0
      0
      0
      0
      0
      0
      2
      2
      2
      2
      2
      2
      2
      2
    );
  index 1002;
  sCoords
    (
      1.94800414615e-06
      2.50278571259e-06
      7.63483783551e-06
      1.22424998165e-05
      1.66357982756e-05
      1.76579819525e-05
      2.48490638028e-05
      2.65563775309e-05
      3.69657109217e-05
      4.11179684171e-05
      2.22044604925e-18
      1.05189596661e-06
      5.25899964581e-06
      1.3711503463e-05
      2.44904371041e-05
      2.80518654605e-05
      2.97494367499e-05
      4.85550040097e-05
    );
  times
    (
      6.95937482298
      6.95978447002
      6.96357394337
      6.96697621051
      6.97022019304
      6.97097496671
      6.976284814
      6.97754548317
      6.98523166612
      6.9883874035
      6.98938182355
      6.98975439147
      6.99124449308
      6.99432197633
      6.99813973496
      6.9994364201
      7.00005449106
      7.00707879793
    );
}

RBCPath1003
{
  edges
    (
      1
      1
      1
      1
      1
      1
      1
      1
      1
      1
      1
      1
      2
      2
      2
      2
      2
      2
      2
    );
  index 1003;
  sCoords
    (
      1.66394671187e-07
      7.38876168018e-07
      6.03466294037e-06
      1.07893292582e-05
      1.53227929312e-05
      1.63775886864e-05
      2.3798097136e-05
      2.5559881553e-05
      3.63013176803e-05
      4.05751064647e-05
      4.19218412461e-05
      4.24264068712e-05
      2.22044604925e-18
      8.45250381723e-06
      1.92314374583e-05
      2.27928658147e-05
      2.44904371041e-05
      4.32960043639e-05
      4.47410003542e-05
    );
  times
    (
      6.95937482298
      6.95978447002
      6.96357394337
      6.96697621051
      6.97022019304
      6.97097496671
      6.976284814
      6.97754548317
      6.98523166612
      6.9883874035
      6.98938182355
      6.98975439147
      6.99124449308
      6.99432197633
      6.99813973496
      6.9994364201
      7.00005449106
      7.00707879793
      7.00763157128
    );
}

RBCPath1004
{
  edges
    (
      0
      0
      0
      0
      0
      0
      0
      0
      0
      0
      0
      2
      2
      2
      2
      2
      2
      2
      2
    );
  index 1004;
  sCoords
    (
      3.81733524574e-07
      4.77503198372e-06
      5.79721566058e-06
      1.29882975109e-05
      1.4695611239e-05
      2.51049446298e-05
      2.92572021252e-05
      3.05656405793e-05
      3.10702062044e-05
      3.30882383722e-05
      3.72560482394e-05
      2.22044604925e-18
      3.5614283564e-06
      5.25899964581e-06
      2.40645669056e-05
      2.55095628959e-05
      3.07685625417e-05
      3.49270056642e-05
      4.77415879961e-05
    );
  times
    (
      6.96697621051
      6.97022019304
      6.97097496671
      6.976284814
      6.97754548317
      6.98523166612
      6.9883874035
      6.98938182355
      6.98975439147
      6.99124449308
      6.99432197633
      6.99813973496
      6.9994364201
      7.00005449106
      7.00707879793
      7.00763157128
      7.0095959272
      7.01110998023
      7.01589651804
    );
}

RBCPath1005
{
  edges
    (
      1
      1
      1
      1
      1
      1
      1
      1
      1
      1
      1
      1
      2
      2
      2
      2
      2
      2
      2
    );
  index 1005;
  sCoords
    (
      2.2105024044e-06
      3.26529815962e-06
      1.06858066092e-05
      1.24475910262e-05
      2.31890271535e-05
      2.74628159379e-05
      2.88095507193e-05
      2.93141163444e-05
      3.13321485122e-05
      3.54999583794e-05
      4.06703170112e-05
      4.24264068712e-05
      2.22044604925e-18
      1.88055672597e-05
      2.02505632501e-05
      2.55095628959e-05
      2.96680060184e-05
      4.24825883503e-05
      4.47410003542e-05
    );
  times
    (
      6.97022019304
      6.97097496671
      6.976284814
      6.97754548317
      6.98523166612
      6.9883874035
      6.98938182355
      6.98975439147
      6.99124449308
      6.99432197633
      6.99813973496
      6.9994364201
      7.00005449106
      7.00707879793
      7.00763157128
      7.0095959272
      7.01110998023
      7.01589651804
      7.01676045813
    );
}

RBCPath1006
{
  edges
    (
      0
      0
      0
      0
      0
      0
      0
      0
      0
      0
      0
      2
      2
      2
      2
      2
      2
      2
      2
    );
  index 1006;
  sCoords
    (
      8.82199155528e-07
      2.58951288362e-06
      1.29988462744e-05
      1.71511037698e-05
      1.84595422239e-05
      1.8964107849e-05
      2.09821400168e-05
      2.5149949884e-05
      3.03203085158e-05
      3.20763983758e-05
      3.29134467254e-05
      2.22044604925e-18
      1.44499599033e-06
      6.70399563614e-06
      1.08624387587e-05
      2.36770210905e-05
      2.59354330944e-05
      3.11944327403e-05
      3.67519722513e-05
    );
  times
    (
      6.976284814
      6.97754548317
      6.98523166612
      6.9883874035
      6.98938182355
      6.98975439147
      6.99124449308
      6.99432197633
      6.99813973496
      6.9994364201
      7.00005449106
      7.00707879793
      7.00763157128
      7.0095959272
      7.01110998023
      7.01589651804
      7.01676045813
      7.01872481405
      7.02074826593
    );
}

RBCPath1007
{
  edges
    21
    (
      0
      0
      0
      0
      0
      0
      0
      0
      0
      0
      0
      0
      0
      2
      2
      2
      2
      2
      2
      2
      2
    );
  index 1007;
  sCoords
    21
    (
      9.48322038852e-07
      5.10057953427e-06
      6.40901798836e-06
      6.91358361348e-06
      8.9316157813e-06
      1.30994256485e-05
      1.82697842803e-05
      2.00258741403e-05
      2.08629224899e-05
      3.03758826356e-05
      3.11483830638e-05
      3.38935692988e-05
      3.59440386808e-05
      2.22044604925e-18
      2.25841200391e-06
      7.51741164972e-06
      1.30749511608e-05
      2.63229789095e-05
      3.536990375e-05
      3.71854176681e-05
      4.35311832279e-05
    );
  times
    21
    (
      6.98523166612
      6.9883874035
      6.98938182355
      6.98975439147
      6.99124449308
      6.99432197633
      6.99813973496
      6.9994364201
      7.00005449106
      7.00707879793
      7.00763157128
      7.0095959272
      7.01110998023
      7.01589651804
      7.01676045813
      7.01872481405
      7.02074826593
      7.02569670546
      7.02899061224
      7.02966874796
      7.0319791861
    );
}

RBCPath1008
{
  edges
    (
      1
      1
      1
      1
      1
      1
      1
      1
      1
      1
      1
      1
      2
      2
      2
      2
      2
      2
      2
    );
  index 1008;
  sCoords
    (
      7.07611757166e-06
      1.13499063561e-05
      1.26966411375e-05
      1.32012067626e-05
      1.52192389304e-05
      1.93870487976e-05
      2.45574074294e-05
      2.63134972894e-05
      2.7150545639e-05
      3.69670103395e-05
      3.77156266703e-05
      4.03759374892e-05
      2.22044604925e-18
      1.28145823319e-05
      1.50729943358e-05
      2.03319939816e-05
      2.58895334926e-05
      3.91375612413e-05
      4.81844860819e-05
    );
  times
    (
      6.98523166612
      6.9883874035
      6.98938182355
      6.98975439147
      6.99124449308
      6.99432197633
      6.99813973496
      6.9994364201
      7.00005449106
      7.00707879793
      7.00763157128
      7.0095959272
      7.01110998023
      7.01589651804
      7.01676045813
      7.01872481405
      7.02074826593
      7.02569670546
      7.02899061224
    );
}

RBCPath1009
{
  edges
    (
      1
      1
      1
      1
      1
      1
      1
      1
      1
      1
      1
      1
      2
      2
      2
      2
      2
      2
    );
  index 1009;
  sCoords
    (
      1.74974036267e-06
      5.91755022986e-06
      1.10879088616e-05
      1.28439987216e-05
      1.36810470712e-05
      2.34975117718e-05
      2.42461281026e-05
      2.69064389215e-05
      2.89569083035e-05
      3.56460920635e-05
      3.68534478289e-05
      3.95986340639e-05
      2.22044604925e-18
      1.32480277487e-05
      2.22949525893e-05
      2.41104665074e-05
      3.04562320672e-05
      3.69250488392e-05
    );
  times
    (
      6.99124449308
      6.99432197633
      6.99813973496
      6.9994364201
      7.00005449106
      7.00707879793
      7.00763157128
      7.0095959272
      7.01110998023
      7.01589651804
      7.01676045813
      7.01872481405
      7.02074826593
      7.02569670546
      7.02899061224
      7.02966874796
      7.0319791861
      7.03439543622
    );
}

RBCPath101
{
  edges
    (
      1
      1
      1
      1
      1
      1
      1
      1
      1
      1
      1
      2
      2
      2
      2
      2
      2
      2
    );
  index 101;
  sCoords
    (
      6.68555003982e-06
      7.0506158537e-06
      7.46258331419e-06
      9.3810405893e-06
      1.29859497721e-05
      2.20221610291e-05
      2.3037349975e-05
      2.42629893462e-05
      2.46409326684e-05
      3.23752557937e-05
      3.50511263228e-05
      2.22044604925e-18
      2.16286618694e-06
      5.25899964581e-06
      9.76495362946e-06
      1.50239532753e-05
      2.83544823739e-05
      4.37771182676e-05
    );
  times
    (
      1.57217269579
      1.57243392367
      1.57272871268
      1.57410149127
      1.57668103382
      1.58314701956
      1.58389662837
      1.58480163237
      1.58508070322
      1.59061510494
      1.59252986104
      1.59780734488
      1.59859482568
      1.59972210099
      1.60140517724
      1.60331993334
      1.60804143402
      1.61365668183
    );
}

RBCPath1010
{
  edges
    (
      0
      0
      0
      0
      0
      0
      0
      0
      0
      0
      0
      0
      2
      2
      2
      2
      2
      2
    );
  index 1010;
  sCoords
    (
      3.2692868794e-07
      2.08301854795e-06
      2.92006689755e-06
      1.24330270433e-05
      1.32055274714e-05
      1.59507137065e-05
      1.80011830884e-05
      2.44835512789e-05
      2.56909070443e-05
      2.84360932793e-05
      3.12638660865e-05
      3.79654964199e-05
      2.22044604925e-18
      1.81551391812e-06
      8.1612794779e-06
      1.463009625e-05
      2.77050474107e-05
      3.08973588636e-05
    );
  times
    (
      6.99813973496
      6.9994364201
      7.00005449106
      7.00707879793
      7.00763157128
      7.0095959272
      7.01110998023
      7.01589651804
      7.01676045813
      7.01872481405
      7.02074826593
      7.02569670546
      7.02899061224
      7.02966874796
      7.0319791861
      7.03439543622
      7.0391559124
      7.04028658776
    );
}

RBCPath1011
{
  edges
    (
      1
      1
      1
      1
      1
      1
      1
      1
      1
      1
      1
      2
      2
      2
      2
      2
    );
  index 1011;
  sCoords
    (
      7.55941829783e-06
      8.30803462861e-06
      1.09683454475e-05
      1.30188148295e-05
      1.97079985896e-05
      2.0915354355e-05
      2.366054059e-05
      2.64883133972e-05
      3.36466438872e-05
      3.82498766672e-05
      3.91975709348e-05
      2.22044604925e-18
      6.46881677208e-06
      1.95437679328e-05
      2.27360793857e-05
      4.18387205221e-05
    );
  times
    (
      7.00707879793
      7.00763157128
      7.0095959272
      7.01110998023
      7.01589651804
      7.01676045813
      7.01872481405
      7.02074826593
      7.02569670546
      7.02899061224
      7.02966874796
      7.0319791861
      7.03439543622
      7.0391559124
      7.04028658776
      7.04724169353
    );
}

RBCPath1012
{
  edges
    (
      0
      0
      0
      0
      0
      0
      0
      0
      0
      0
      0
      0
      2
      2
      2
      2
      2
      2
    );
  index 1012;
  sCoords
    (
      6.52668376065e-07
      2.70313775804e-06
      9.18550594847e-06
      1.03928617139e-05
      1.31380479489e-05
      1.59658207561e-05
      2.26674510895e-05
      2.71283615408e-05
      2.8046755084e-05
      3.11757621672e-05
      3.44480695267e-05
      4.08951426826e-05
      2.22044604925e-18
      1.91026411364e-05
      2.72639206143e-05
      3.13464110627e-05
      4.0547818357e-05
      4.92631488232e-05
    );
  times
    (
      7.0095959272
      7.01110998023
      7.01589651804
      7.01676045813
      7.01872481405
      7.02074826593
      7.02569670546
      7.02899061224
      7.02966874796
      7.0319791861
      7.03439543622
      7.0391559124
      7.04028658776
      7.04724169353
      7.05013231297
      7.05153559041
      7.05479460965
      7.0579677858
    );
}

RBCPath1013
{
  edges
    (
      0
      0
      0
      0
      0
      0
      0
      0
      0
      0
      2
      2
      2
      2
      2
    );
  index 1013;
  sCoords
    (
      4.30875846385e-07
      7.13250617971e-06
      1.15934166311e-05
      1.25118101742e-05
      1.56408172574e-05
      1.89131246169e-05
      2.53601977729e-05
      2.68914619614e-05
      3.66112181674e-05
      4.05259599406e-05
      2.22044604925e-18
      9.20140729435e-06
      1.79167377606e-05
      1.86535889373e-05
      3.04546510323e-05
    );
  times
    (
      7.02074826593
      7.02569670546
      7.02899061224
      7.02966874796
      7.0319791861
      7.03439543622
      7.0391559124
      7.04028658776
      7.04724169353
      7.05013231297
      7.05153559041
      7.05479460965
      7.0579677858
      7.05824301646
      7.0625396807
    );
}

RBCPath1014
{
  edges
    (
      1
      1
      1
      1
      1
      1
      1
      1
      1
      1
      2
      2
      2
      2
      2
    );
  index 1014;
  sCoords
    (
      1.84495113609e-06
      6.44818391609e-06
      7.39587818366e-06
      1.062471412e-05
      1.41200214376e-05
      2.07727840991e-05
      2.23529022352e-05
      3.20726584411e-05
      3.61122974009e-05
      3.80127443316e-05
      2.22044604925e-18
      8.71533046622e-06
      9.452181643e-06
      2.1253243738e-05
      4.07985927057e-05
    );
  times
    (
      7.02569670546
      7.02899061224
      7.02966874796
      7.0319791861
      7.03439543622
      7.0391559124
      7.04028658776
      7.04724169353
      7.05013231297
      7.05153559041
      7.05479460965
      7.0579677858
      7.05824301646
      7.0625396807
      7.06984031286
    );
}

RBCPath1015
{
  edges
    (
      0
      0
      0
      0
      0
      0
      0
      0
      0
      0
      2
      2
      2
      2
      2
    );
  index 1015;
  sCoords
    (
      2.60442738298e-06
      3.52282092616e-06
      6.65182800937e-06
      9.92413536883e-06
      1.63712085248e-05
      1.79024727134e-05
      2.76222289193e-05
      3.15369706925e-05
      3.34374176231e-05
      3.79918950788e-05
      2.22044604925e-18
      7.36851176785e-07
      1.25379132718e-05
      3.20832622394e-05
      4.12846695338e-05
    );
  times
    (
      7.02899061224
      7.02966874796
      7.0319791861
      7.03439543622
      7.0391559124
      7.04028658776
      7.04724169353
      7.05013231297
      7.05153559041
      7.05479460965
      7.0579677858
      7.05824301646
      7.0625396807
      7.06984031286
      7.07319046536
    );
}

RBCPath1016
{
  edges
    (
      1
      1
      1
      1
      1
      1
      1
      1
      1
      2
      2
      2
      2
      2
      2
      2
    );
  index 1016;
  sCoords
    (
      3.29628921501e-06
      9.94905187645e-06
      1.15291700125e-05
      2.12489262185e-05
      2.52885651783e-05
      2.71890121089e-05
      3.16026746486e-05
      3.6037186441e-05
      3.64218211327e-05
      2.22044604925e-18
      1.95453489677e-05
      2.8746756262e-05
      3.74620867282e-05
      4.01775506076e-05
      4.54052575969e-05
      4.54365502534e-05
    );
  times
    (
      7.03439543622
      7.0391559124
      7.04028658776
      7.04724169353
      7.05013231297
      7.05153559041
      7.05479460965
      7.0579677858
      7.05824301646
      7.0625396807
      7.06984031286
      7.07319046536
      7.07627732248
      7.07721071088
      7.07906229696
      7.07907338041
    );
}

RBCPath1017
{
  edges
    (
      0
      0
      0
      0
      0
      0
      0
      0
      0
      0
      2
      2
      2
      2
      2
      2
    );
  index 1017;
  sCoords
    (
      1.08465678859e-06
      4.99939856175e-06
      6.89984549239e-06
      1.1454322948e-05
      1.58888347405e-05
      1.62734694322e-05
      2.22780551707e-05
      3.24806842938e-05
      3.70177678542e-05
      4.11982726801e-05
      2.22044604925e-18
      5.22770698927e-06
      5.25899964581e-06
      9.8224493924e-06
      3.28282886775e-05
      3.92593125449e-05
    );
  times
    (
      7.04724169353
      7.05013231297
      7.05153559041
      7.05479460965
      7.0579677858
      7.05824301646
      7.0625396807
      7.06984031286
      7.07319046536
      7.07627732248
      7.07721071088
      7.07906229696
      7.07907338041
      7.08073489284
      7.08888326301
      7.09122474296
    );
}

RBCPath1018
{
  edges
    (
      1
      1
      1
      1
      1
      1
      1
      1
      1
      1
      1
      2
      2
      2
      2
      2
    );
  index 1018;
  sCoords
    (
      2.45192740942e-06
      4.35237434005e-06
      8.76603687968e-06
      1.32005486721e-05
      1.35851833639e-05
      1.95897691023e-05
      2.97923982254e-05
      3.4474234366e-05
      3.86547391919e-05
      3.99188193067e-05
      4.24264068712e-05
      2.22044604925e-18
      4.56344974659e-06
      2.75692890317e-05
      3.40003128991e-05
      4.47410003542e-05
    );
  times
    (
      7.05013231297
      7.05153559041
      7.05479460965
      7.0579677858
      7.05824301646
      7.0625396807
      7.06984031286
      7.07319046536
      7.07627732248
      7.07721071088
      7.07906229696
      7.07907338041
      7.08073489284
      7.08888326301
      7.09122474296
      7.09523663389
    );
}

RBCPath1019
{
  edges
    (
      0
      0
      0
      0
      0
      0
      0
      0
      0
      0
      2
      2
      2
      2
      2
      2
      2
    );
  index 1019;
  sCoords
    (
      8.07948451402e-08
      4.65429536906e-07
      6.47001527535e-06
      1.66726443985e-05
      2.12097279589e-05
      2.53902327848e-05
      2.66183669759e-05
      2.91259545403e-05
      2.91409647688e-05
      3.13911371785e-05
      2.22044604925e-18
      6.43102386742e-06
      1.71717113225e-05
      2.24307109683e-05
      2.75164530142e-05
      3.40865196883e-05
      4.92342343201e-05
    );
  times
    (
      7.0579677858
      7.05824301646
      7.0625396807
      7.06984031286
      7.07319046536
      7.07627732248
      7.07721071088
      7.07906229696
      7.07907338041
      7.08073489284
      7.08888326301
      7.09122474296
      7.09523663389
      7.09715139
      7.09895269393
      7.10134479816
      7.10700281392
    );
}

RBCPath102
{
  edges
    (
      1
      1
      1
      1
      1
      1
      1
      1
      1
      1
      1
      2
      2
      2
      2
    );
  index 102;
  sCoords
    (
      7.21769753892e-06
      8.23288648481e-06
      9.45852585607e-06
      9.83646917826e-06
      1.75707923036e-05
      2.02466628327e-05
      2.7621943381e-05
      2.87611000349e-05
      3.03917977877e-05
      3.28265079498e-05
      3.55963623565e-05
      2.22044604925e-18
      1.54226358937e-05
      2.16455176261e-05
      2.69045172719e-05
    );
  times
    (
      1.58314701956
      1.58389662837
      1.58480163237
      1.58508070322
      1.59061510494
      1.59252986104
      1.59780734488
      1.59859482568
      1.59972210099
      1.60140517724
      1.60331993334
      1.60804143402
      1.61365668183
      1.61598106962
      1.61789582573
    );
}

RBCPath1020
{
  edges
    (
      1
      1
      1
      1
      1
      1
      1
      1
      1
      2
      2
      2
      2
      2
      2
      2
    );
  index 1020;
  sCoords
    (
      3.04647979704e-06
      1.32491089201e-05
      1.79309450607e-05
      2.21114498866e-05
      2.33755300015e-05
      2.58831175659e-05
      2.58981277944e-05
      2.82200904318e-05
      3.92553601245e-05
      2.22044604925e-18
      1.07406874551e-05
      1.59996871009e-05
      2.10854291468e-05
      2.76554958209e-05
      4.28032104527e-05
      4.35689761326e-05
    );
  times
    (
      7.0625396807
      7.06984031286
      7.07319046536
      7.07627732248
      7.07721071088
      7.07906229696
      7.07907338041
      7.08073489284
      7.08888326301
      7.09122474296
      7.09523663389
      7.09715139
      7.09895269393
      7.10134479816
      7.10700281392
      7.10729575235
    );
}

RBCPath1021
{
  edges
    (
      0
      0
      0
      0
      0
      0
      0
      0
      0
      0
      0
      2
      2
      2
      2
      2
      2
      2
    );
  index 1021;
  sCoords
    (
      3.17880817499e-06
      7.7158917354e-06
      1.18963965613e-05
      1.31245307524e-05
      1.56321183169e-05
      1.56471285454e-05
      1.7897300955e-05
      2.89325706477e-05
      3.21036173944e-05
      3.75368877811e-05
      4.00562864016e-05
      2.22044604925e-18
      6.57006667408e-06
      2.17177813059e-05
      2.24835469858e-05
      2.89145708532e-05
      3.18286405575e-05
      4.3825998015e-05
    );
  times
    (
      7.06984031286
      7.07319046536
      7.07627732248
      7.07721071088
      7.07906229696
      7.07907338041
      7.08073489284
      7.08888326301
      7.09122474296
      7.09523663389
      7.09715139
      7.09895269393
      7.10134479816
      7.10700281392
      7.10729575235
      7.10969788596
      7.11075887344
      7.11524015918
    );
}

RBCPath1022
{
  edges
    (
      1
      1
      1
      1
      1
      1
      1
      1
      1
      1
      1
      2
      2
      2
      2
      2
      2
      2
    );
  index 1022;
  sCoords
    (
      4.31756164897e-06
      8.49806647488e-06
      9.76214658973e-06
      1.22697341542e-05
      1.22847443827e-05
      1.46067070201e-05
      2.56419767128e-05
      2.88130234595e-05
      3.42462938462e-05
      3.68394320558e-05
      3.92789229333e-05
      2.22044604925e-18
      1.51477146318e-05
      1.59134803117e-05
      2.23445041791e-05
      2.52585738834e-05
      3.72559313409e-05
      4.34299333259e-05
    );
  times
    (
      7.07319046536
      7.07627732248
      7.07721071088
      7.07906229696
      7.07907338041
      7.08073489284
      7.08888326301
      7.09122474296
      7.09523663389
      7.09715139
      7.09895269393
      7.10134479816
      7.10700281392
      7.10729575235
      7.10969788596
      7.11075887344
      7.11524015918
      7.11760198148
    );
}

RBCPath1023
{
  edges
    (
      0
      0
      0
      0
      0
      0
      0
      0
      0
      0
      0
      2
      2
      2
      2
      2
      2
      2
      2
    );
  index 1023;
  sCoords
    (
      9.94186272127e-07
      2.22232046323e-06
      4.72990802767e-06
      4.74491825616e-06
      6.99509066585e-06
      1.80303603585e-05
      2.12014071052e-05
      2.66346774919e-05
      2.91540761124e-05
      3.1524196582e-05
      3.47638033665e-05
      2.22044604925e-18
      7.65765679867e-07
      7.19678954729e-06
      1.01108592516e-05
      2.21082167091e-05
      2.82822186941e-05
      3.48522853682e-05
      3.5214286139e-05
    );
  times
    (
      7.07627732248
      7.07721071088
      7.07906229696
      7.07907338041
      7.08073489284
      7.08888326301
      7.09122474296
      7.09523663389
      7.09715139
      7.09895269393
      7.10134479816
      7.10700281392
      7.10729575235
      7.10969788596
      7.11075887344
      7.11524015918
      7.11760198148
      7.12005605073
      7.12018785207
    );
}

RBCPath1024
{
  edges
    (
      1
      1
      1
      1
      1
      1
      1
      1
      1
      1
      2
      2
      2
      2
      2
      2
      2
      2
    );
  index 1024;
  sCoords
    (
      1.85730347292e-06
      1.28925731656e-05
      1.60636199123e-05
      2.1496890299e-05
      2.40900285086e-05
      2.65295193861e-05
      2.9677003324e-05
      3.73396068287e-05
      3.77363309008e-05
      4.098952039e-05
      2.22044604925e-18
      1.19973574575e-05
      1.81713594425e-05
      2.47414261166e-05
      2.51034268874e-05
      3.98891407484e-05
      3.99639591658e-05
      4.72571968085e-05
    );
  times
    (
      7.08073489284
      7.08888326301
      7.09122474296
      7.09523663389
      7.09715139
      7.09895269393
      7.10134479816
      7.10700281392
      7.10729575235
      7.10969788596
      7.11075887344
      7.11524015918
      7.11760198148
      7.12005605073
      7.12018785207
      7.12571065231
      7.12573789305
      7.1284620831