// -*- C++ -*-
// File generated by PyFoam - sorry for the ugliness

FoamFile
{
 version 2.0;
 format ascii;
 class dictionary;
 location "constant";
 object edgeVelocities;
}

edgeVelocities
  2
  (
    (
      0
      (
       1e-3
       1e-3
       1e-3
       1e-3
      )
    )

    (
      10
      (
       1e-3
       1e-3
       1e-3
       1e-3
      )
    )
  );

