// -*- C++ -*-
// File generated by PyFoam - sorry for the ugliness

FoamFile
{
 version 2.0;
 format ascii;
 class dictionary;
 location "constant";
 object RBCPath;
}

RBCPath0000
{
  edges
    (
      0
      0
    );
  index 0;
  sCoords
    (
      0
      0.00012
    );
  times
    (
      0.0
      0.12
    );
}

RBCPath0001
{
  edges
    (
      1
      1
    );
  index 1;
  sCoords
    (
      0
      0.00012
    );
  times
    (
      0.00457560575
      0.12457560575
    );
}

RBCPath0002
{
  edges
    (
      2
      2
    );
  index 2;
  sCoords
    (
      0
      0.00012
    );
  times
    (
      0.0091512115
      0.1291512115
    );
}

RBCPath0003
{
  edges
    (
      3
      3
    );
  index 3;
  sCoords
    (
      0
      0.00012
    );
  times
    (
      0.01372681725
      0.13372681725
    );
}

RBCPath0004
{
  edges
    (
      0
      0
    );
  index 4;
  sCoords
    (
      0
      0.00012
    );
  times
    (
      0.018302423
      0.138302423
    );
}

RBCPath0005
{
  edges
    (
      1
      1
    );
  index 5;
  sCoords
    (
      0
      0.00012
    );
  times
    (
      0.02287802875
      0.14287802875
    );
}

RBCPath0006
{
  edges
    (
      2
      2
    );
  index 6;
  sCoords
    (
      0
      0.00012
    );
  times
    (
      0.0274536345
      0.1474536345
    );
}

RBCPath0007
{
  edges
    (
      3
      3
    );
  index 7;
  sCoords
    (
      0
      0.00012
    );
  times
    (
      0.03202924025
      0.15202924025
    );
}

RBCPath0008
{
  edges
    (
      0
      0
    );
  index 8;
  sCoords
    (
      0
      0.00012
    );
  times
    (
      0.036604846
      0.156604846
    );
}

RBCPath0009
{
  edges
    (
      1
      1
    );
  index 9;
  sCoords
    (
      0
      0.00012
    );
  times
    (
      0.04118045175
      0.16118045175
    );
}

RBCPath0010
{
  edges
    (
      2
      2
    );
  index 10;
  sCoords
    (
      0
      0.00012
    );
  times
    (
      0.0457560575
      0.1657560575
    );
}

RBCPath0011
{
  edges
    (
      3
      3
    );
  index 11;
  sCoords
    (
      0
      0.00012
    );
  times
    (
      0.05033166325
      0.17033166325
    );
}

RBCPath0012
{
  edges
    (
      0
      0
    );
  index 12;
  sCoords
    (
      0
      0.00012
    );
  times
    (
      0.054907269
      0.174907269
    );
}

RBCPath0013
{
  edges
    (
      1
      1
    );
  index 13;
  sCoords
    (
      0
      0.00012
    );
  times
    (
      0.05948287475
      0.17948287475
    );
}

RBCPath0014
{
  edges
    (
      2
      2
    );
  index 14;
  sCoords
    (
      0
      0.00012
    );
  times
    (
      0.0640584805
      0.1840584805
    );
}

RBCPath0015
{
  edges
    (
      3
      3
    );
  index 15;
  sCoords
    (
      0
      0.00012
    );
  times
    (
      0.06863408625
      0.18863408625
    );
}

RBCPath0016
{
  edges
    (
      0
      0
    );
  index 16;
  sCoords
    (
      0
      0.00012
    );
  times
    (
      0.073209692
      0.193209692
    );
}

RBCPath0017
{
  edges
    (
      1
      1
    );
  index 17;
  sCoords
    (
      0
      0.00012
    );
  times
    (
      0.07778529775
      0.19778529775
    );
}

RBCPath0018
{
  edges
    (
      2
      2
    );
  index 18;
  sCoords
    (
      0
      0.00012
    );
  times
    (
      0.0823609035
      0.2023609035
    );
}

RBCPath0019
{
  edges
    (
      3
      3
    );
  index 19;
  sCoords
    (
      0
      0.00012
    );
  times
    (
      0.08693650925
      0.20693650925
    );
}

RBCPath0020
{
  edges
    (
      0
      0
    );
  index 20;
  sCoords
    (
      0
      0.00012
    );
  times
    (
      0.091512115
      0.211512115
    );
}

RBCPath0021
{
  edges
    (
      1
      1
    );
  index 21;
  sCoords
    (
      0
      0.00012
    );
  times
    (
      0.09608772075
      0.21608772075
    );
}

RBCPath0022
{
  edges
    (
      2
      2
    );
  index 22;
  sCoords
    (
      0
      0.00012
    );
  times
    (
      0.1006633265
      0.2206633265
    );
}

RBCPath0023
{
  edges
    (
      3
      3
    );
  index 23;
  sCoords
    (
      0
      0.00012
    );
  times
    (
      0.10523893225
      0.22523893225
    );
}

RBCPath0024
{
  edges
    (
      0
      0
    );
  index 24;
  sCoords
    (
      0
      0.00012
    );
  times
    (
      0.109814538
      0.229814538
    );
}

RBCPath0025
{
  edges
    (
      1
      1
    );
  index 25;
  sCoords
    (
      0
      0.00012
    );
  times
    (
      0.11439014375
      0.23439014375
    );
}

RBCPath0026
{
  edges
    (
      2
      2
    );
  index 26;
  sCoords
    (
      0
      0.00012
    );
  times
    (
      0.1189657495
      0.2389657495
    );
}

RBCPath0027
{
  edges
    (
      3
      3
    );
  index 27;
  sCoords
    (
      0
      0.00012
    );
  times
    (
      0.12354135525
      0.24354135525
    );
}

RBCPath0028
{
  edges
    (
      0
      0
    );
  index 28;
  sCoords
    (
      0
      0.00012
    );
  times
    (
      0.128116961
      0.248116961
    );
}

RBCPath0029
{
  edges
    (
      1
      1
    );
  index 29;
  sCoords
    (
      0
      0.00012
    );
  times
    (
      0.13269256675
      0.25269256675
    );
}

RBCPath0030
{
  edges
    (
      2
      2
    );
  index 30;
  sCoords
    (
      0
      0.00012
    );
  times
    (
      0.1372681725
      0.2572681725
    );
}

RBCPath0031
{
  edges
    (
      3
      3
    );
  index 31;
  sCoords
    (
      0
      0.00012
    );
  times
    (
      0.14184377825
      0.26184377825
    );
}

RBCPath0032
{
  edges
    (
      0
      0
    );
  index 32;
  sCoords
    (
      0
      0.00012
    );
  times
    (
      0.146419384
      0.266419384
    );
}

RBCPath0033
{
  edges
    (
      1
      1
    );
  index 33;
  sCoords
    (
      0
      0.00012
    );
  times
    (
      0.15099498975
      0.27099498975
    );
}

RBCPath0034
{
  edges
    (
      2
      2
    );
  index 34;
  sCoords
    (
      0
      0.00012
    );
  times
    (
      0.1555705955
      0.2755705955
    );
}

RBCPath0035
{
  edges
    (
      3
      3
    );
  index 35;
  sCoords
    (
      0
      0.00012
    );
  times
    (
      0.16014620125
      0.28014620125
    );
}

RBCPath0036
{
  edges
    (
      0
      0
    );
  index 36;
  sCoords
    (
      0
      0.00012
    );
  times
    (
      0.164721807
      0.284721807
    );
}

RBCPath0037
{
  edges
    (
      1
      1
    );
  index 37;
  sCoords
    (
      0
      0.00012
    );
  times
    (
      0.16929741275
      0.28929741275
    );
}

RBCPath0038
{
  edges
    (
      2
      2
    );
  index 38;
  sCoords
    (
      0
      0.00012
    );
  times
    (
      0.1738730185
      0.2938730185
    );
}

RBCPath0039
{
  edges
    (
      3
      3
    );
  index 39;
  sCoords
    (
      0
      0.00012
    );
  times
    (
      0.17844862425
      0.29844862425
    );
}

RBCPath0040
{
  edges
    (
      0
      0
    );
  index 40;
  sCoords
    (
      0
      0.00012
    );
  times
    (
      0.18302423
      0.30302423
    );
}

RBCPath0041
{
  edges
    (
      1
      1
    );
  index 41;
  sCoords
    (
      0
      0.00012
    );
  times
    (
      0.18759983575
      0.30759983575
    );
}

RBCPath0042
{
  edges
    (
      2
      2
    );
  index 42;
  sCoords
    (
      0
      0.00012
    );
  times
    (
      0.1921754415
      0.3121754415
    );
}

RBCPath0043
{
  edges
    (
      3
      3
    );
  index 43;
  sCoords
    (
      0
      0.00012
    );
  times
    (
      0.19675104725
      0.31675104725
    );
}

RBCPath0044
{
  edges
    (
      0
      0
    );
  index 44;
  sCoords
    (
      0
      0.00012
    );
  times
    (
      0.201326653
      0.321326653
    );
}

RBCPath0045
{
  edges
    (
      1
      1
    );
  index 45;
  sCoords
    (
      0
      0.00012
    );
  times
    (
      0.20590225875
      0.32590225875
    );
}

RBCPath0046
{
  edges
    (
      2
      2
    );
  index 46;
  sCoords
    (
      0
      0.00012
    );
  times
    (
      0.2104778645
      0.3304778645
    );
}

RBCPath0047
{
  edges
    (
      3
      3
    );
  index 47;
  sCoords
    (
      0
      0.00012
    );
  times
    (
      0.21505347025
      0.33505347025
    );
}

RBCPath0048
{
  edges
    (
      0
      0
    );
  index 48;
  sCoords
    (
      0
      0.00012
    );
  times
    (
      0.219629076
      0.339629076
    );
}

RBCPath0049
{
  edges
    (
      1
      1
    );
  index 49;
  sCoords
    (
      0
      0.00012
    );
  times
    (
      0.22420468175
      0.34420468175
    );
}

RBCPath0050
{
  edges
    (
      2
      2
    );
  index 50;
  sCoords
    (
      0
      0.00012
    );
  times
    (
      0.2287802875
      0.3487802875
    );
}

RBCPath0051
{
  edges
    (
      3
      3
    );
  index 51;
  sCoords
    (
      0
      0.00012
    );
  times
    (
      0.23335589325
      0.35335589325
    );
}

RBCPath0052
{
  edges
    (
      0
      0
    );
  index 52;
  sCoords
    (
      0
      0.00012
    );
  times
    (
      0.237931499
      0.357931499
    );
}

RBCPath0053
{
  edges
    (
      1
      1
    );
  index 53;
  sCoords
    (
      0
      0.00012
    );
  times
    (
      0.24250710475
      0.36250710475
    );
}

RBCPath0054
{
  edges
    (
      2
      2
    );
  index 54;
  sCoords
    (
      0
      0.00012
    );
  times
    (
      0.2470827105
      0.3670827105
    );
}

RBCPath0055
{
  edges
    (
      3
      3
    );
  index 55;
  sCoords
    (
      0
      0.00012
    );
  times
    (
      0.25165831625
      0.37165831625
    );
}

RBCPath0056
{
  edges
    (
      0
      0
    );
  index 56;
  sCoords
    (
      0
      0.00012
    );
  times
    (
      0.256233922
      0.376233922
    );
}

RBCPath0057
{
  edges
    (
      1
      1
    );
  index 57;
  sCoords
    (
      0
      0.00012
    );
  times
    (
      0.26080952775
      0.38080952775
    );
}

RBCPath0058
{
  edges
    (
      2
      2
    );
  index 58;
  sCoords
    (
      0
      0.00012
    );
  times
    (
      0.2653851335
      0.3853851335
    );
}

RBCPath0059
{
  edges
    (
      3
      3
    );
  index 59;
  sCoords
    (
      0
      0.00012
    );
  times
    (
      0.26996073925
      0.38996073925
    );
}

RBCPath0060
{
  edges
    (
      0
      0
    );
  index 60;
  sCoords
    (
      0
      0.00012
    );
  times
    (
      0.274536345
      0.394536345
    );
}

RBCPath0061
{
  edges
    (
      1
      1
    );
  index 61;
  sCoords
    (
      0
      0.00012
    );
  times
    (
      0.27911195075
      0.39911195075
    );
}

RBCPath0062
{
  edges
    (
      2
      2
    );
  index 62;
  sCoords
    (
      0
      0.00012
    );
  times
    (
      0.2836875565
      0.4036875565
    );
}

RBCPath0063
{
  edges
    (
      3
      3
    );
  index 63;
  sCoords
    (
      0
      0.00012
    );
  times
    (
      0.28826316225
      0.40826316225
    );
}

RBCPath0064
{
  edges
    (
      0
      0
    );
  index 64;
  sCoords
    (
      0
      0.00012
    );
  times
    (
      0.292838768
      0.412838768
    );
}

RBCPath0065
{
  edges
    (
      1
      1
    );
  index 65;
  sCoords
    (
      0
      0.00012
    );
  times
    (
      0.29741437375
      0.41741437375
    );
}

RBCPath0066
{
  edges
    (
      2
      2
    );
  index 66;
  sCoords
    (
      0
      0.00012
    );
  times
    (
      0.3019899795
      0.4219899795
    );
}

RBCPath0067
{
  edges
    (
      3
      3
    );
  index 67;
  sCoords
    (
      0
      0.00012
    );
  times
    (
      0.30656558525
      0.42656558525
    );
}

RBCPath0068
{
  edges
    (
      0
      0
    );
  index 68;
  sCoords
    (
      0
      0.00012
    );
  times
    (
      0.311141191
      0.431141191
    );
}

RBCPath0069
{
  edges
    (
      1
      1
    );
  index 69;
  sCoords
    (
      0
      0.00012
    );
  times
    (
      0.31571679675
      0.43571679675
    );
}

RBCPath0070
{
  edges
    (
      2
      2
    );
  index 70;
  sCoords
    (
      0
      0.00012
    );
  times
    (
      0.3202924025
      0.4402924025
    );
}

RBCPath0071
{
  edges
    (
      3
      3
    );
  index 71;
  sCoords
    (
      0
      0.00012
    );
  times
    (
      0.32486800825
      0.44486800825
    );
}

RBCPath0072
{
  edges
    (
      0
      0
    );
  index 72;
  sCoords
    (
      0
      0.00012
    );
  times
    (
      0.329443614
      0.449443614
    );
}

RBCPath0073
{
  edges
    (
      1
      1
    );
  index 73;
  sCoords
    (
      0
      0.00012
    );
  times
    (
      0.33401921975
      0.45401921975
    );
}

RBCPath0074
{
  edges
    (
      2
      2
    );
  index 74;
  sCoords
    (
      0
      0.00012
    );
  times
    (
      0.3385948255
      0.4585948255
    );
}

RBCPath0075
{
  edges
    (
      3
      3
    );
  index 75;
  sCoords
    (
      0
      0.00012
    );
  times
    (
      0.34317043125
      0.46317043125
    );
}

RBCPath0076
{
  edges
    (
      0
      0
    );
  index 76;
  sCoords
    (
      0
      0.00012
    );
  times
    (
      0.347746037
      0.467746037
    );
}

RBCPath0077
{
  edges
    (
      1
      1
    );
  index 77;
  sCoords
    (
      0
      0.00012
    );
  times
    (
      0.35232164275
      0.47232164275
    );
}

RBCPath0078
{
  edges
    (
      2
      2
    );
  index 78;
  sCoords
    (
      0
      0.00012
    );
  times
    (
      0.3568972485
      0.4768972485
    );
}

RBCPath0079
{
  edges
    (
      3
      3
    );
  index 79;
  sCoords
    (
      0
      0.00012
    );
  times
    (
      0.36147285425
      0.48147285425
    );
}

RBCPath0080
{
  edges
    (
      0
      0
    );
  index 80;
  sCoords
    (
      0
      0.00012
    );
  times
    (
      0.36604846
      0.48604846
    );
}

RBCPath0081
{
  edges
    (
      1
      1
    );
  index 81;
  sCoords
    (
      0
      0.00012
    );
  times
    (
      0.37062406575
      0.49062406575
    );
}

RBCPath0082
{
  edges
    (
      2
      2
    );
  index 82;
  sCoords
    (
      0
      0.00012
    );
  times
    (
      0.3751996715
      0.4951996715
    );
}

RBCPath0083
{
  edges
    (
      3
      3
    );
  index 83;
  sCoords
    (
      0
      0.00012
    );
  times
    (
      0.37977527725
      0.49977527725
    );
}

RBCPath0084
{
  edges
    (
      0
      0
    );
  index 84;
  sCoords
    (
      0
      0.00012
    );
  times
    (
      0.384350883
      0.504350883
    );
}

RBCPath0085
{
  edges
    (
      1
      1
    );
  index 85;
  sCoords
    (
      0
      0.00012
    );
  times
    (
      0.38892648875
      0.50892648875
    );
}

RBCPath0086
{
  edges
    (
      2
      2
    );
  index 86;
  sCoords
    (
      0
      0.00012
    );
  times
    (
      0.3935020945
      0.5135020945
    );
}

RBCPath0087
{
  edges
    (
      3
      3
    );
  index 87;
  sCoords
    (
      0
      0.00012
    );
  times
    (
      0.39807770025
      0.51807770025
    );
}

RBCPath0088
{
  edges
    (
      0
      0
    );
  index 88;
  sCoords
    (
      0
      0.00012
    );
  times
    (
      0.402653306
      0.522653306
    );
}

RBCPath0089
{
  edges
    (
      1
      1
    );
  index 89;
  sCoords
    (
      0
      0.00012
    );
  times
    (
      0.40722891175
      0.52722891175
    );
}

RBCPath0090
{
  edges
    (
      2
      2
    );
  index 90;
  sCoords
    (
      0
      0.00012
    );
  times
    (
      0.4118045175
      0.5318045175
    );
}

RBCPath0091
{
  edges
    (
      3
      3
    );
  index 91;
  sCoords
    (
      0
      0.00012
    );
  times
    (
      0.41638012325
      0.53638012325
    );
}

RBCPath0092
{
  edges
    (
      0
      0
    );
  index 92;
  sCoords
    (
      0
      0.00012
    );
  times
    (
      0.420955729
      0.540955729
    );
}

RBCPath0093
{
  edges
    (
      1
      1
    );
  index 93;
  sCoords
    (
      0
      0.00012
    );
  times
    (
      0.42553133475
      0.54553133475
    );
}

RBCPath0094
{
  edges
    (
      2
      2
    );
  index 94;
  sCoords
    (
      0
      0.00012
    );
  times
    (
      0.4301069405
      0.5501069405
    );
}

RBCPath0095
{
  edges
    (
      3
      3
    );
  index 95;
  sCoords
    (
      0
      0.00012
    );
  times
    (
      0.43468254625
      0.55468254625
    );
}

RBCPath0096
{
  edges
    (
      0
      0
    );
  index 96;
  sCoords
    (
      0
      0.00012
    );
  times
    (
      0.439258152
      0.559258152
    );
}

RBCPath0097
{
  edges
    (
      1
      1
    );
  index 97;
  sCoords
    (
      0
      0.00012
    );
  times
    (
      0.44383375775
      0.56383375775
    );
}

RBCPath0098
{
  edges
    (
      2
      2
    );
  index 98;
  sCoords
    (
      0
      0.00012
    );
  times
    (
      0.4484093635
      0.5684093635
    );
}

RBCPath0099
{
  edges
    (
      3
      3
    );
  index 99;
  sCoords
    (
      0
      0.00012
    );
  times
    (
      0.45298496925
      0.57298496925
    );
}

RBCPath0100
{
  edges
    (
      0
      0
    );
  index 100;
  sCoords
    (
      0
      0.00012
    );
  times
    (
      0.457560575
      0.577560575
    );
}

RBCPath0101
{
  edges
    (
      1
      1
    );
  index 101;
  sCoords
    (
      0
      0.00012
    );
  times
    (
      0.46213618075
      0.58213618075
    );
}

RBCPath0102
{
  edges
    (
      2
      2
    );
  index 102;
  sCoords
    (
      0
      0.00012
    );
  times
    (
      0.4667117865
      0.5867117865
    );
}

RBCPath0103
{
  edges
    (
      3
      3
    );
  index 103;
  sCoords
    (
      0
      0.00012
    );
  times
    (
      0.47128739225
      0.59128739225
    );
}

RBCPath0104
{
  edges
    (
      0
      0
    );
  index 104;
  sCoords
    (
      0
      0.00012
    );
  times
    (
      0.475862998
      0.595862998
    );
}

RBCPath0105
{
  edges
    (
      1
      1
    );
  index 105;
  sCoords
    (
      0
      0.00012
    );
  times
    (
      0.48043860375
      0.60043860375
    );
}

RBCPath0106
{
  edges
    (
      2
      2
    );
  index 106;
  sCoords
    (
      0
      0.00012
    );
  times
    (
      0.4850142095
      0.6050142095
    );
}

RBCPath0107
{
  edges
    (
      3
      3
    );
  index 107;
  sCoords
    (
      0
      0.00012
    );
  times
    (
      0.48958981525
      0.60958981525
    );
}

RBCPath0108
{
  edges
    (
      0
      0
    );
  index 108;
  sCoords
    (
      0
      0.00012
    );
  times
    (
      0.494165421
      0.614165421
    );
}

RBCPath0109
{
  edges
    (
      1
      1
    );
  index 109;
  sCoords
    (
      0
      0.00012
    );
  times
    (
      0.49874102675
      0.61874102675
    );
}

RBCPath0110
{
  edges
    (
      2
      2
    );
  index 110;
  sCoords
    (
      0
      0.00012
    );
  times
    (
      0.5033166325
      0.6233166325
    );
}

RBCPath0111
{
  edges
    (
      3
      3
    );
  index 111;
  sCoords
    (
      0
      0.00012
    );
  times
    (
      0.50789223825
      0.62789223825
    );
}

RBCPath0112
{
  edges
    (
      0
      0
    );
  index 112;
  sCoords
    (
      0
      0.00012
    );
  times
    (
      0.512467844
      0.632467844
    );
}

RBCPath0113
{
  edges
    (
      1
      1
    );
  index 113;
  sCoords
    (
      0
      0.00012
    );
  times
    (
      0.51704344975
      0.63704344975
    );
}

RBCPath0114
{
  edges
    (
      2
      2
    );
  index 114;
  sCoords
    (
      0
      0.00012
    );
  times
    (
      0.5216190555
      0.6416190555
    );
}

RBCPath0115
{
  edges
    (
      3
      3
    );
  index 115;
  sCoords
    (
      0
      0.00012
    );
  times
    (
      0.52619466125
      0.64619466125
    );
}

RBCPath0116
{
  edges
    (
      0
      0
    );
  index 116;
  sCoords
    (
      0
      0.00012
    );
  times
    (
      0.530770267
      0.650770267
    );
}

RBCPath0117
{
  edges
    (
      1
      1
    );
  index 117;
  sCoords
    (
      0
      0.00012
    );
  times
    (
      0.53534587275
      0.65534587275
    );
}

RBCPath0118
{
  edges
    (
      2
      2
    );
  index 118;
  sCoords
    (
      0
      0.00012
    );
  times
    (
      0.5399214785
      0.6599214785
    );
}

RBCPath0119
{
  edges
    (
      3
      3
    );
  index 119;
  sCoords
    (
      0
      0.00012
    );
  times
    (
      0.54449708425
      0.66449708425
    );
}

RBCPath0120
{
  edges
    (
      0
      0
    );
  index 120;
  sCoords
    (
      0
      0.00012
    );
  times
    (
      0.54907269
      0.66907269
    );
}

RBCPath0121
{
  edges
    (
      1
      1
    );
  index 121;
  sCoords
    (
      0
      0.00012
    );
  times
    (
      0.55364829575
      0.67364829575
    );
}

RBCPath0122
{
  edges
    (
      2
      2
    );
  index 122;
  sCoords
    (
      0
      0.00012
    );
  times
    (
      0.5582239015
      0.6782239015
    );
}

RBCPath0123
{
  edges
    (
      3
      3
    );
  index 123;
  sCoords
    (
      0
      0.00012
    );
  times
    (
      0.56279950725
      0.68279950725
    );
}

RBCPath0124
{
  edges
    (
      0
      0
    );
  index 124;
  sCoords
    (
      0
      0.00012
    );
  times
    (
      0.567375113
      0.687375113
    );
}

RBCPath0125
{
  edges
    (
      1
      1
    );
  index 125;
  sCoords
    (
      0
      0.00012
    );
  times
    (
      0.57195071875
      0.69195071875
    );
}

RBCPath0126
{
  edges
    (
      2
      2
    );
  index 126;
  sCoords
    (
      0
      0.00012
    );
  times
    (
      0.5765263245
      0.6965263245
    );
}

RBCPath0127
{
  edges
    (
      3
      3
    );
  index 127;
  sCoords
    (
      0
      0.00012
    );
  times
    (
      0.58110193025
      0.70110193025
    );
}

RBCPath0128
{
  edges
    (
      0
      0
    );
  index 128;
  sCoords
    (
      0
      0.00012
    );
  times
    (
      0.585677536
      0.705677536
    );
}

RBCPath0129
{
  edges
    (
      1
      1
    );
  index 129;
  sCoords
    (
      0
      0.00012
    );
  times
    (
      0.59025314175
      0.71025314175
    );
}

RBCPath0130
{
  edges
    (
      2
      2
    );
  index 130;
  sCoords
    (
      0
      0.00012
    );
  times
    (
      0.5948287475
      0.7148287475
    );
}

RBCPath0131
{
  edges
    (
      3
      3
    );
  index 131;
  sCoords
    (
      0
      0.00012
    );
  times
    (
      0.59940435325
      0.71940435325
    );
}

RBCPath0132
{
  edges
    (
      0
      0
    );
  index 132;
  sCoords
    (
      0
      0.00012
    );
  times
    (
      0.603979959
      0.723979959
    );
}

RBCPath0133
{
  edges
    (
      1
      1
    );
  index 133;
  sCoords
    (
      0
      0.00012
    );
  times
    (
      0.60855556475
      0.72855556475
    );
}

RBCPath0134
{
  edges
    (
      2
      2
    );
  index 134;
  sCoords
    (
      0
      0.00012
    );
  times
    (
      0.6131311705
      0.7331311705
    );
}

RBCPath0135
{
  edges
    (
      3
      3
    );
  index 135;
  sCoords
    (
      0
      0.00012
    );
  times
    (
      0.61770677625
      0.73770677625
    );
}

RBCPath0136
{
  edges
    (
      0
      0
    );
  index 136;
  sCoords
    (
      0
      0.00012
    );
  times
    (
      0.622282382
      0.742282382
    );
}

RBCPath0137
{
  edges
    (
      1
      1
    );
  index 137;
  sCoords
    (
      0
      0.00012
    );
  times
    (
      0.62685798775
      0.74685798775
    );
}

RBCPath0138
{
  edges
    (
      2
      2
    );
  index 138;
  sCoords
    (
      0
      0.00012
    );
  times
    (
      0.6314335935
      0.7514335935
    );
}

RBCPath0139
{
  edges
    (
      3
      3
    );
  index 139;
  sCoords
    (
      0
      0.00012
    );
  times
    (
      0.63600919925
      0.75600919925
    );
}

RBCPath0140
{
  edges
    (
      0
      0
    );
  index 140;
  sCoords
    (
      0
      0.00012
    );
  times
    (
      0.640584805
      0.760584805
    );
}

RBCPath0141
{
  edges
    (
      1
      1
    );
  index 141;
  sCoords
    (
      0
      0.00012
    );
  times
    (
      0.64516041075
      0.76516041075
    );
}

RBCPath0142
{
  edges
    (
      2
      2
    );
  index 142;
  sCoords
    (
      0
      0.00012
    );
  times
    (
      0.6497360165
      0.7697360165
    );
}

RBCPath0143
{
  edges
    (
      3
      3
    );
  index 143;
  sCoords
    (
      0
      0.00012
    );
  times
    (
      0.65431162225
      0.77431162225
    );
}

RBCPath0144
{
  edges
    (
      0
      0
    );
  index 144;
  sCoords
    (
      0
      0.00012
    );
  times
    (
      0.658887228
      0.778887228
    );
}

RBCPath0145
{
  edges
    (
      1
      1
    );
  index 145;
  sCoords
    (
      0
      0.00012
    );
  times
    (
      0.66346283375
      0.78346283375
    );
}

RBCPath0146
{
  edges
    (
      2
      2
    );
  index 146;
  sCoords
    (
      0
      0.00012
    );
  times
    (
      0.6680384395
      0.7880384395
    );
}

RBCPath0147
{
  edges
    (
      3
      3
    );
  index 147;
  sCoords
    (
      0
      0.00012
    );
  times
    (
      0.67261404525
      0.79261404525
    );
}

RBCPath0148
{
  edges
    (
      0
      0
    );
  index 148;
  sCoords
    (
      0
      0.00012
    );
  times
    (
      0.677189651
      0.797189651
    );
}

RBCPath0149
{
  edges
    (
      1
      1
    );
  index 149;
  sCoords
    (
      0
      0.00012
    );
  times
    (
      0.68176525675
      0.80176525675
    );
}

RBCPath0150
{
  edges
    (
      2
      2
    );
  index 150;
  sCoords
    (
      0
      0.00012
    );
  times
    (
      0.6863408625
      0.8063408625
    );
}

RBCPath0151
{
  edges
    (
      3
      3
    );
  index 151;
  sCoords
    (
      0
      0.00012
    );
  times
    (
      0.69091646825
      0.81091646825
    );
}

RBCPath0152
{
  edges
    (
      0
      0
    );
  index 152;
  sCoords
    (
      0
      0.00012
    );
  times
    (
      0.695492074
      0.815492074
    );
}

RBCPath0153
{
  edges
    (
      1
      1
    );
  index 153;
  sCoords
    (
      0
      0.00012
    );
  times
    (
      0.70006767975
      0.82006767975
    );
}

RBCPath0154
{
  edges
    (
      2
      2
    );
  index 154;
  sCoords
    (
      0
      0.00012
    );
  times
    (
      0.7046432855
      0.8246432855
    );
}

RBCPath0155
{
  edges
    (
      3
      3
    );
  index 155;
  sCoords
    (
      0
      0.00012
    );
  times
    (
      0.70921889125
      0.82921889125
    );
}

RBCPath0156
{
  edges
    (
      0
      0
    );
  index 156;
  sCoords
    (
      0
      0.00012
    );
  times
    (
      0.713794497
      0.833794497
    );
}

RBCPath0157
{
  edges
    (
      1
      1
    );
  index 157;
  sCoords
    (
      0
      0.00012
    );
  times
    (
      0.71837010275
      0.83837010275
    );
}

RBCPath0158
{
  edges
    (
      2
      2
    );
  index 158;
  sCoords
    (
      0
      0.00012
    );
  times
    (
      0.7229457085
      0.8429457085
    );
}

RBCPath0159
{
  edges
    (
      3
      3
    );
  index 159;
  sCoords
    (
      0
      0.00012
    );
  times
    (
      0.72752131425
      0.84752131425
    );
}

RBCPath0160
{
  edges
    (
      0
      0
    );
  index 160;
  sCoords
    (
      0
      0.00012
    );
  times
    (
      0.73209692
      0.85209692
    );
}

RBCPath0161
{
  edges
    (
      1
      1
    );
  index 161;
  sCoords
    (
      0
      0.00012
    );
  times
    (
      0.73667252575
      0.85667252575
    );
}

RBCPath0162
{
  edges
    (
      2
      2
    );
  index 162;
  sCoords
    (
      0
      0.00012
    );
  times
    (
      0.7412481315
      0.8612481315
    );
}

RBCPath0163
{
  edges
    (
      3
      3
    );
  index 163;
  sCoords
    (
      0
      0.00012
    );
  times
    (
      0.74582373725
      0.86582373725
    );
}

RBCPath0164
{
  edges
    (
      0
      0
    );
  index 164;
  sCoords
    (
      0
      0.00012
    );
  times
    (
      0.750399343
      0.870399343
    );
}

RBCPath0165
{
  edges
    (
      1
      1
    );
  index 165;
  sCoords
    (
      0
      0.00012
    );
  times
    (
      0.75497494875
      0.87497494875
    );
}

RBCPath0166
{
  edges
    (
      2
      2
    );
  index 166;
  sCoords
    (
      0
      0.00012
    );
  times
    (
      0.7595505545
      0.8795505545
    );
}

RBCPath0167
{
  edges
    (
      3
      3
    );
  index 167;
  sCoords
    (
      0
      0.00012
    );
  times
    (
      0.76412616025
      0.88412616025
    );
}

RBCPath0168
{
  edges
    (
      0
      0
    );
  index 168;
  sCoords
    (
      0
      0.00012
    );
  times
    (
      0.768701766
      0.888701766
    );
}

RBCPath0169
{
  edges
    (
      1
      1
    );
  index 169;
  sCoords
    (
      0
      0.00012
    );
  times
    (
      0.77327737175
      0.89327737175
    );
}

RBCPath0170
{
  edges
    (
      2
      2
    );
  index 170;
  sCoords
    (
      0
      0.00012
    );
  times
    (
      0.7778529775
      0.8978529775
    );
}

RBCPath0171
{
  edges
    (
      3
      3
    );
  index 171;
  sCoords
    (
      0
      0.00012
    );
  times
    (
      0.78242858325
      0.90242858325
    );
}

RBCPath0172
{
  edges
    (
      0
      0
    );
  index 172;
  sCoords
    (
      0
      0.00012
    );
  times
    (
      0.787004189
      0.907004189
    );
}

RBCPath0173
{
  edges
    (
      1
      1
    );
  index 173;
  sCoords
    (
      0
      0.00012
    );
  times
    (
      0.79157979475
      0.91157979475
    );
}

RBCPath0174
{
  edges
    (
      2
      2
    );
  index 174;
  sCoords
    (
      0
      0.00012
    );
  times
    (