/*--------------------------------*- C++ -*----------------------------------*\
| =========                 |                                                 |
| \\      /  F ield         | OpenFOAM: The Open Source CFD Toolbox           |
|  \\    /   O peration     | Version:  2.3.0                                 |
|   \\  /    A nd           | Web:      www.OpenFOAM.org                      |
|    \\/     M anipulation  |                                                 |
\*---------------------------------------------------------------------------*/
FoamFile
{
    version     2.0;
    format      ascii;
    class       dictionary;
    location    "constant";
    object      graphDict;
}
// * * * * * * * * * * * * * * * * * * * * * * * * * * * * * * * * * * * * * //

vertexIndices
9
(
 10 
 11
 12
 13
 14
 15
 16
 17
 18
)
;

edgeIndices
9
(
 21
 22
 23
 24
 25
 26
 27
 28
 29
)
;

adjacencyList
9
(
 // (10 11)
 (11 10)
 (11 12)
 // (12 11)
 (11 13)
 (12 14)
 (13 15)
 (14 16)
 (15 16)
 (16 17)
 (17 18)
)
;

vertexPositions
9
(
 (0 0 0)
 (1.5 0 0)
 (2   1 0)
 (2  -1 0)
 (3   1 0)
 (3  -1 0)
 (3.5 0 0)
 (5   0 0)
 (4.5 0.5 0)
)
;

// edgeType   straight;
edgeType   polygonal;

edgePoints
9
(
 2((0 0 0) (1.5 0 0))
 3((1.5 0 0) (1.5  1 0) (2  1 0))
 3((1.5 0 0) (1.5 -1 0) (2 -1 0))
 2((2  1 0) (3  1 0))
 2((2 -1 0) (3 -1 0))
 3((3  1 0) (3.5  1 0) (3.5 0 0))
 3((3 -1 0) (3.5 -1 0) (3.5 0 0))
 2((3.5 0 0) (5 0 0))
 2((5 0 0) (4.5 0.5 0))
)
;



// ************************************************************************* //
