/*--------------------------------*- C++ -*----------------------------------*\
| =========                 |                                                 |
| \\      /  F ield         | OpenFOAM: The Open Source CFD Toolbox           |
|  \\    /   O peration     | Version:  2.3.0                                 |
|   \\  /    A nd           | Web:      www.OpenFOAM.org                      |
|    \\/     M anipulation  |                                                 |
\*---------------------------------------------------------------------------*/
FoamFile
{
    version     2.0;
    format      ascii;
    class       dictionary;
    location    "constant";
    object      graphDict;
}
// * * * * * * * * * * * * * * * * * * * * * * * * * * * * * * * * * * * * * //

vertexIndices
8
(
 10 
 11
 12
 13
 14
 15
 16
 17
)
;

edgeIndices
8
(
 21
 22
 23
 24
 25
 26
 27
 28
)
;

adjacencyList
8
(
 (10 11)
 (11 12)
 (11 13)
 (12 14)
 (13 15)
 (14 16)
 (15 16)
 (16 17)
)
;

vertexPositions
8
(
 (0 0 0)
 (1.5 0 0)
 (2   1 0)
 (2  -1 0)
 (3   1 0)
 (3  -1 0)
 (3.5 0 0)
 (5   0 0)
)
;

// edgeType   straight;

// diameters
// 8
// (
 // 1(0.2)
 // 1(0.3)
 // 1(0.3)
 // 1(0.2)
 // 1(0.2)
 // 1(0.1)
 // 1(0.1)
 // 1(0.4)
// )
// ;

edgeType   polygonal;

edgePoints
8
(
 2((0 0 0) (1.5 0 0))
 3((1.5 0 0) (1.5  1 0) (2  1 0))
 3((1.5 0 0) (1.5 -1 0) (2 -1 0))
 2((2  1 0) (3  1 0))
 2((2 -1 0) (3 -1 0))
 3((3  1 0) (3.5  1 0) (3.5 0 0))
 3((3 -1 0) (3.5 -1 0) (3.5 0 0))
 2((3.5 0 0) (5 0 0))
)
;

segmentDiameters
8
(
// 2{0.2} // test sanity checks
 1(0.2)
 2(0.3 0.2)
 2(0.3 0.2)
 1(0.2)
 1(0.2)
 2(0.1 0.4)
 2(0.1 0.4)
 1(0.4)
)
;

tubeOptions
{
    useEffectiveDiameter  false;
    minimalDiameter       0.0;
}




// ************************************************************************* //

