// -*- C++ -*-
// File generated by PyFoam - sorry for the ugliness

FoamFile
{
 version 2.0;
 format ascii;
 class dictionary;
 location "constant";
 object graphDict;
}

adjacencyList
  92
  (

    (
      0
      2
    )

    (
      0
      1
    )

    (
      0
      49
    )

    (
      1
      9
    )

    (
      1
      10
    )

    (
      3
      4
    )

    (
      4
      5
    )

    (
      4
      84
    )

    (
      5
      34
    )

    (
      5
      38
    )

    (
      6
      8
    )

    (
      6
      7
    )

    (
      6
      68
    )

    (
      7
      67
    )

    (
      7
      72
    )

    (
      11
      12
    )

    (
      11
      13
    )

    (
      11
      14
    )

    (
      14
      39
    )

    (
      14
      29
    )

    (
      15
      16
    )

    (
      16
      85
    )

    (
      16
      86
    )

    (
      17
      18
    )

    (
      18
      20
    )

    (
      18
      19
    )

    (
      19
      21
    )

    (
      19
      65
    )

    (
      21
      22
    )

    (
      21
      23
    )

    (
      23
      72
    )

    (
      23
      55
    )

    (
      24
      25
    )

    (
      25
      26
    )

    (
      25
      78
    )

    (
      27
      28
    )

    (
      28
      29
    )

    (
      28
      62
    )

    (
      29
      58
    )

    (
      30
      31
    )

    (
      31
      33
    )

    (
      31
      32
    )

    (
      32
      46
    )

    (
      32
      45
    )

    (
      33
      41
    )

    (
      33
      40
    )

    (
      35
      36
    )

    (
      36
      38
    )

    (
      36
      37
    )

    (
      37
      64
    )

    (
      37
      79
    )

    (
      38
      60
    )

    (
      41
      75
    )

    (
      41
      74
    )

    (
      42
      44
    )

    (
      42
      43
    )

    (
      42
      59
    )

    (
      43
      60
    )

    (
      43
      73
    )

    (
      46
      69
    )

    (
      46
      70
    )

    (
      47
      48
    )

    (
      47
      51
    )

    (
      47
      62
    )

    (
      49
      50
    )

    (
      49
      52
    )

    (
      50
      53
    )

    (
      50
      71
    )

    (
      53
      76
    )

    (
      53
      77
    )

    (
      54
      56
    )

    (
      54
      55
    )

    (
      54
      83
    )

    (
      55
      77
    )

    (
      56
      57
    )

    (
      56
      82
    )

    (
      58
      59
    )

    (
      58
      78
    )

    (
      59
      77
    )

    (
      60
      61
    )

    (
      62
      63
    )

    (
      65
      66
    )

    (
      65
      67
    )

    (
      67
      68
    )

    (
      68
      73
    )

    (
      69
      79
    )

    (
      69
      79
    )

    (
      70
      73
    )

    (
      70
      87
    )

    (
      72
      80
    )

    (
      78
      82
    )

    (
      81
      82
    )
  );

edgeIndices
  92
  (
    0
    1
    2
    3
    4
    5
    6
    7
    8
    9
    10
    11
    12
    13
    14
    15
    16
    17
    18
    19
    20
    21
    22
    23
    24
    25
    26
    27
    28
    29
    30
    31
    32
    33
    34
    35
    36
    37
    38
    39
    40
    41
    42
    43
    44
    45
    46
    47
    48
    49
    50
    51
    52
    53
    54
    55
    56
    57
    58
    59
    60
    61
    62
    63
    64
    65
    66
    67
    68
    69
    70
    71
    72
    73
    74
    75
    76
    77
    78
    79
    80
    81
    82
    83
    84
    85
    86
    87
    88
    89
    90
    91
  );

edgePoints
  92
  (

    78
    (

(0.000112938 2.21689e-05 7.95557e-05)
(0.000112648 2.30969e-05 7.92871e-05)
(0.000112165 2.28061e-05 7.85121e-05)
(0.000111682 2.25153e-05 7.77371e-05)
(0.000111199 2.22245e-05 7.6962e-05)
(0.000110717 2.19338e-05 7.6187e-05)
(0.000110234 2.1643e-05 7.5412e-05)
(0.000109751 2.13522e-05 7.4637e-05)
(0.000109268 2.10614e-05 7.3862e-05)
(0.000108785 2.07706e-05 7.3087e-05)
(0.000108303 2.04799e-05 7.23119e-05)
(0.00010782 2.01891e-05 7.15369e-05)
(0.000107337 1.98983e-05 7.07619e-05)
(0.000106854 1.96075e-05 6.99869e-05)
(0.000106372 1.93167e-05 6.92119e-05)
(0.000105889 1.90259e-05 6.84369e-05)
(0.000105406 1.87352e-05 6.76618e-05)
(0.000104923 1.84444e-05 6.68868e-05)
(0.000104441 1.81536e-05 6.61118e-05)
(0.000103958 1.78628e-05 6.53368e-05)
(0.000103475 1.7572e-05 6.45618e-05)
(0.000102992 1.72813e-05 6.37868e-05)
(0.00010251 1.69905e-05 6.30117e-05)
(0.000102088 1.67819e-05 6.21956e-05)
(0.000101666 1.65733e-05 6.13794e-05)
(0.000101244 1.63647e-05 6.05633e-05)
(0.000100823 1.61561e-05 5.97471e-05)
(0.000100401 1.59475e-05 5.89309e-05)
(9.9979e-05 1.5739e-05 5.81148e-05)
(9.95572e-05 1.55304e-05 5.72986e-05)
(9.91355e-05 1.53218e-05 5.64824e-05)
(9.87137e-05 1.51132e-05 5.56663e-05)
(9.82919e-05 1.49046e-05 5.48501e-05)
(9.78702e-05 1.4696e-05 5.4034e-05)
(9.7103e-05 1.4102e-05 5.38135e-05)
(9.63359e-05 1.3508e-05 5.3593e-05)
(9.55687e-05 1.29139e-05 5.33725e-05)
(9.48016e-05 1.23199e-05 5.3152e-05)
(9.40345e-05 1.17259e-05 5.29314e-05)
(9.32673e-05 1.11318e-05 5.27109e-05)
(9.25002e-05 1.05378e-05 5.24904e-05)
(9.20418e-05 9.88277e-06 5.30698e-05)
(9.15834e-05 9.22775e-06 5.36491e-05)
(9.1125e-05 8.57273e-06 5.42284e-05)
(9.06667e-05 7.91771e-06 5.48078e-05)
(9.02083e-05 7.26269e-06 5.53871e-05)
(8.97499e-05 6.60767e-06 5.59664e-05)
(8.92915e-05 5.95264e-06 5.65458e-05)
(8.9083e-05 5.37925e-06 5.72626e-05)
(8.88745e-05 4.80585e-06 5.79794e-05)
(8.8666e-05 4.23245e-06 5.86963e-05)
(8.84575e-05 3.65906e-06 5.94131e-05)
(8.8249e-05 3.08566e-06 6.013e-05)
(8.80405e-05 2.51226e-06 6.08468e-05)
(8.78319e-05 1.93886e-06 6.15636e-05)
(8.76234e-05 1.36547e-06 6.22805e-05)
(8.7613e-05 1.23617e-06 6.32519e-05)
(8.76025e-05 1.10687e-06 6.42234e-05)
(8.75921e-05 9.77575e-07 6.51948e-05)
(8.75816e-05 8.48277e-07 6.61663e-05)
(8.75712e-05 7.1898e-07 6.71378e-05)
(8.75607e-05 5.89682e-07 6.81092e-05)
(8.75502e-05 4.60384e-07 6.90807e-05)
(8.75398e-05 3.31086e-07 7.00521e-05)
(8.75293e-05 2.01789e-07 7.10236e-05)
(8.75189e-05 7.24911e-08 7.1995e-05)
(8.75084e-05 -5.68065e-08 7.29665e-05)
(8.76376e-05 -1.25107e-08 7.38843e-05)
(8.77667e-05 3.17852e-08 7.48021e-05)
(8.78959e-05 7.60811e-08 7.57198e-05)
(8.8025e-05 1.20377e-07 7.66376e-05)
(8.81542e-05 1.64673e-07 7.75554e-05)
(8.82833e-05 2.08969e-07 7.84732e-05)
(8.84125e-05 2.53265e-07 7.9391e-05)
(8.85416e-05 2.9756e-07 8.03088e-05)
(8.86708e-05 3.41856e-07 8.12265e-05)
(8.87999e-05 3.86152e-07 8.21443e-05)
(8.89291e-05 4.30448e-07 8.30621e-05)    )

    (

(0.000112938 2.21689e-05 7.95557e-05)
(0.00011309 2.37086e-05 8.00621e-05)
(0.000112884 2.53625e-05 8.00621e-05)
(0.000112678 2.70163e-05 8.00621e-05)    )

    (

(0.000112938 2.21689e-05 7.95557e-05)
(0.000113328 2.34144e-05 8.03582e-05)
(0.000113941 2.2877e-05 8.11608e-05)
(0.000114554 2.23396e-05 8.19634e-05)
(0.000115167 2.18022e-05 8.2766e-05)
(0.00011578 2.12648e-05 8.35686e-05)    )

    71
    (

(0.000112678 2.70163e-05 8.00621e-05)
(0.000113478 2.62947e-05 7.96703e-05)
(0.000114113 2.69061e-05 7.92784e-05)
(0.000114747 2.75174e-05 7.88866e-05)
(0.000115381 2.81287e-05 7.84948e-05)
(0.000116016 2.87401e-05 7.81029e-05)
(0.00011665 2.93514e-05 7.77111e-05)
(0.000117284 2.99627e-05 7.73192e-05)
(0.000117919 3.05741e-05 7.69274e-05)
(0.000118553 3.11854e-05 7.65356e-05)
(0.000119187 3.17967e-05 7.61437e-05)
(0.000119822 3.24081e-05 7.57519e-05)
(0.000120456 3.30194e-05 7.53601e-05)
(0.00012109 3.36307e-05 7.49682e-05)
(0.000121725 3.42421e-05 7.45764e-05)
(0.000122359 3.48534e-05 7.41846e-05)
(0.000122993 3.54647e-05 7.37927e-05)
(0.000123628 3.60761e-05 7.34009e-05)
(0.000124158 3.66779e-05 7.29469e-05)
(0.000124689 3.72798e-05 7.2493e-05)
(0.00012522 3.78816e-05 7.2039e-05)
(0.000125751 3.84835e-05 7.15851e-05)
(0.000126281 3.90854e-05 7.11312e-05)
(0.000126812 3.96872e-05 7.06772e-05)
(0.000127343 4.02891e-05 7.02233e-05)
(0.000127874 4.08909e-05 6.97693e-05)
(0.000128404 4.14928e-05 6.93154e-05)
(0.000128611 4.20422e-05 6.86364e-05)
(0.000128817 4.25917e-05 6.79574e-05)
(0.000129023 4.31412e-05 6.72783e-05)
(0.00012923 4.36906e-05 6.65993e-05)
(0.000129436 4.42401e-05 6.59203e-05)
(0.000129642 4.47896e-05 6.52413e-05)
(0.000129848 4.5339e-05 6.45623e-05)
(0.000130055 4.58885e-05 6.38833e-05)
(0.000130261 4.6438e-05 6.32043e-05)
(0.000130158 4.65924e-05 6.23005e-05)
(0.000130056 4.67469e-05 6.13968e-05)
(0.000129953 4.69013e-05 6.04931e-05)
(0.000129851 4.70557e-05 5.95893e-05)
(0.000129748 4.72102e-05 5.86856e-05)
(0.000129646 4.73646e-05 5.77818e-05)
(0.000129543 4.75191e-05 5.68781e-05)
(0.000129441 4.76735e-05 5.59744e-05)
(0.000129338 4.78279e-05 5.50706e-05)
(0.000128757 4.77364e-05 5.44223e-05)
(0.000128176 4.76448e-05 5.3774e-05)
(0.000127595 4.75532e-05 5.31256e-05)
(0.000127014 4.74616e-05 5.24773e-05)
(0.000126433 4.73701e-05 5.1829e-05)
(0.000125852 4.72785e-05 5.11806e-05)
(0.00012527 4.71869e-05 5.05323e-05)
(0.000124689 4.70953e-05 4.9884e-05)
(0.000123826 4.67713e-05 4.9904e-05)
(0.000122963 4.64474e-05 4.99241e-05)
(0.000122099 4.61234e-05 4.99442e-05)
(0.000121236 4.57994e-05 4.99643e-05)
(0.000120373 4.54754e-05 4.99843e-05)
(0.00011951 4.51514e-05 5.00044e-05)
(0.000118646 4.48275e-05 5.00245e-05)
(0.000117783 4.45035e-05 5.00446e-05)
(0.00011692 4.41795e-05 5.00646e-05)
(0.000116053 4.43882e-05 5.00643e-05)
(0.000115187 4.45969e-05 5.00641e-05)
(0.00011432 4.48056e-05 5.00638e-05)
(0.000113453 4.50144e-05 5.00635e-05)
(0.000112587 4.52231e-05 5.00632e-05)
(0.00011172 4.54318e-05 5.00629e-05)
(0.000110854 4.56405e-05 5.00627e-05)
(0.000109987 4.58492e-05 5.00624e-05)
(0.000109121 4.60579e-05 5.00621e-05)    )

    79
    (

(0.000112678 2.70163e-05 8.00621e-05)
(0.000112119 2.6263e-05 8.04049e-05)
(0.000111394 2.68426e-05 8.07477e-05)
(0.000110669 2.74222e-05 8.10904e-05)
(0.000109944 2.80018e-05 8.14332e-05)
(0.000109219 2.85814e-05 8.1776e-05)
(0.000108494 2.91609e-05 8.21188e-05)
(0.000107769 2.97405e-05 8.24615e-05)
(0.000107044 3.03201e-05 8.28043e-05)
(0.000106319 3.08997e-05 8.31471e-05)
(0.000105709 3.16146e-05 8.31598e-05)
(0.000105098 3.23295e-05 8.31725e-05)
(0.000104488 3.30444e-05 8.31851e-05)
(0.000103878 3.37593e-05 8.31978e-05)
(0.000103268 3.44741e-05 8.32105e-05)
(0.000102657 3.5189e-05 8.32232e-05)
(0.000102047 3.59039e-05 8.32358e-05)
(0.000101437 3.66188e-05 8.32485e-05)
(0.000100827 3.73337e-05 8.32612e-05)
(0.000100216 3.80485e-05 8.32739e-05)
(9.99293e-05 3.88715e-05 8.35584e-05)
(9.96421e-05 3.96945e-05 8.38428e-05)
(9.9355e-05 4.05175e-05 8.41273e-05)
(9.90679e-05 4.13405e-05 8.44118e-05)
(9.87807e-05 4.21636e-05 8.46963e-05)
(9.84936e-05 4.29866e-05 8.49808e-05)
(9.82065e-05 4.38096e-05 8.52653e-05)
(9.79193e-05 4.46326e-05 8.55498e-05)
(9.76322e-05 4.54556e-05 8.58342e-05)
(9.73451e-05 4.62786e-05 8.61187e-05)
(9.71111e-05 4.7174e-05 8.60683e-05)
(9.68771e-05 4.80694e-05 8.60179e-05)
(9.66432e-05 4.89648e-05 8.59675e-05)
(9.64092e-05 4.98602e-05 8.59171e-05)
(9.61752e-05 5.07556e-05 8.58667e-05)
(9.59413e-05 5.1651e-05 8.58162e-05)
(9.57073e-05 5.25464e-05 8.57658e-05)
(9.54733e-05 5.34418e-05 8.57154e-05)
(9.52394e-05 5.43372e-05 8.5665e-05)
(9.50054e-05 5.52326e-05 8.56146e-05)
(9.48016e-05 5.56311e-05 8.47861e-05)
(9.45979e-05 5.60295e-05 8.39577e-05)
(9.43941e-05 5.6428e-05 8.31292e-05)
(9.41903e-05 5.68264e-05 8.23008e-05)
(9.39865e-05 5.72249e-05 8.14723e-05)
(9.37827e-05 5.76233e-05 8.06438e-05)
(9.3579e-05 5.80218e-05 7.98154e-05)
(9.33752e-05 5.84203e-05 7.89869e-05)
(9.31714e-05 5.88187e-05 7.81584e-05)
(9.29676e-05 5.92172e-05 7.733e-05)
(9.28411e-05 5.93633e-05 7.6404e-05)
(9.27146e-05 5.95094e-05 7.5478e-05)
(9.25881e-05 5.96556e-05 7.4552e-05)
(9.24615e-05 5.98017e-05 7.3626e-05)
(9.2335e-05 5.99478e-05 7.27e-05)
(9.22085e-05 6.0094e-05 7.1774e-05)
(9.20819e-05 6.02401e-05 7.0848e-05)
(9.19554e-05 6.03862e-05 6.9922e-05)
(9.18289e-05 6.05323e-05 6.8996e-05)
(9.17024e-05 6.06785e-05 6.807e-05)
(9.16109e-05 6.07591e-05 6.71309e-05)
(9.15194e-05 6.08398e-05 6.61918e-05)
(9.14278e-05 6.09205e-05 6.52527e-05)
(9.13363e-05 6.10011e-05 6.43136e-05)
(9.12448e-05 6.10818e-05 6.33745e-05)
(9.11533e-05 6.11625e-05 6.24354e-05)
(9.10618e-05 6.12431e-05 6.14963e-05)
(9.09703e-05 6.13238e-05 6.05572e-05)
(9.08788e-05 6.14044e-05 5.96181e-05)
(9.07873e-05 6.14851e-05 5.8679e-05)
(9.08195e-05 6.13015e-05 5.77215e-05)
(9.08517e-05 6.11178e-05 5.67641e-05)
(9.08839e-05 6.09342e-05 5.58067e-05)
(9.09161e-05 6.07505e-05 5.48492e-05)
(9.09483e-05 6.05669e-05 5.38918e-05)
(9.09805e-05 6.03832e-05 5.29344e-05)
(9.10127e-05 6.01996e-05 5.1977e-05)
(9.10449e-05 6.00159e-05 5.10195e-05)
(9.10771e-05 5.98323e-05 5.00621e-05)    )

    71
    (

(0.000219101 0.000149365 0.000218062)
(0.000218263 0.000149903 0.000218062)
(0.000217425 0.000150441 0.000218062)
(0.000216587 0.000150979 0.000218063)
(0.000215749 0.000151516 0.000218063)
(0.000214911 0.000152054 0.000218063)
(0.000214073 0.000152592 0.000218063)
(0.000213235 0.000153129 0.000218063)
(0.000212296 0.000153301 0.000217853)
(0.000211357 0.000153472 0.000217642)
(0.000210418 0.000153643 0.000217431)
(0.000209479 0.000153814 0.000217221)
(0.00020854 0.000153986 0.00021701)
(0.000207601 0.000154157 0.0002168)
(0.000206662 0.000154328 0.000216589)
(0.000205722 0.0001545 0.000216378)
(0.000204783 0.000154671 0.000216168)
(0.000203883 0.00015462 0.000216296)
(0.000202983 0.00015457 0.000216425)
(0.000202082 0.000154519 0.000216553)
(0.000201182 0.000154469 0.000216682)
(0.000200282 0.000154418 0.00021681)
(0.000199381 0.000154367 0.000216939)
(0.000198481 0.000154317 0.000217067)
(0.000197581 0.000154266 0.000217196)
(0.00019668 0.000154216 0.000217324)
(0.000195722 0.000154158 0.000217122)
(0.000194763 0.0001541 0.00021692)
(0.000193805 0.000154041 0.000216718)
(0.000192846 0.000153983 0.000216516)
(0.000191888 0.000153925 0.000216314)
(0.000190929 0.000153867 0.000216112)
(0.00018997 0.000153809 0.00021591)
(0.000189012 0.000153751 0.000215708)
(0.000188053 0.000153693 0.000215506)
(0.000187174 0.000153844 0.000215383)
(0.000186295 0.000153996 0.00021526)
(0.000185416 0.000154147 0.000215137)
(0.000184537 0.000154298 0.000215014)
(0.000183658 0.00015445 0.000214891)
(0.000182779 0.000154601 0.000214768)
(0.0001819 0.000154752 0.000214645)
(0.000181294 0.000155026 0.000214029)
(0.000180687 0.000155299 0.000213413)
(0.000180081 0.000155573 0.000212798)
(0.000179474 0.000155846 0.000212182)
(0.000178867 0.00015612 0.000211566)
(0.000178261 0.000156393 0.000210951)
(0.000177654 0.000156667 0.000210335)
(0.000177048 0.00015694 0.000209719)
(0.000176441 0.000157214 0.000209103)
(0.000175834 0.000157487 0.000208488)
(0.000175136 0.000157969 0.000208023)
(0.000174437 0.00015845 0.000207559)
(0.000173739 0.000158932 0.000207095)
(0.00017304 0.000159413 0.00020663)
(0.000172342 0.000159895 0.000206166)
(0.000171643 0.000160376 0.000205702)
(0.000170945 0.000160857 0.000205237)
(0.000170246 0.000161339 0.000204773)
(0.000169547 0.00016182 0.000204308)
(0.000169176 0.000162254 0.000203584)
(0.000168804 0.000162687 0.000202859)
(0.000168432 0.00016312 0.000202135)
(0.00016806 0.000163553 0.00020141)
(0.000167688 0.000163987 0.000200685)
(0.000167316 0.00016442 0.000199961)
(0.000166945 0.000164853 0.000199236)
(0.000166573 0.000165286 0.000198511)
(0.000166201 0.00016572 0.000197787)
(0.000165829 0.000166153 0.000197062)    )

    55
    (

(0.000165829 0.000166153 0.000197062)
(0.0001652 0.0001669 0.00019695)
(0.000164572 0.000167647 0.000196838)
(0.000163943 0.000168393 0.000196726)
(0.000163315 0.00016914 0.000196614)
(0.000162686 0.000169887 0.000196502)
(0.000162058 0.000170634 0.00019639)
(0.000161429 0.000171381 0.000196278)
(0.0001608 0.000172128 0.000196166)
(0.000160172 0.000172875 0.000196054)
(0.000159543 0.000173622 0.000195942)
(0.000158915 0.000174368 0.00019583)
(0.000158286 0.000175115 0.000195718)
(0.000157658 0.000175862 0.000195606)
(0.000157029 0.000176609 0.000195494)
(0.0001564 0.000177356 0.000195382)
(0.000155772 0.000178103 0.00019527)
(0.000155143 0.00017885 0.000195158)
(0.000154515 0.000179596 0.000195046)
(0.000153886 0.000180343 0.000194934)
(0.000153257 0.00018109 0.000194823)
(0.000152629 0.000181837 0.000194711)
(0.000152 0.000182584 0.000194599)
(0.000151372 0.000183331 0.000194487)
(0.000150743 0.000184078 0.000194375)
(0.000150115 0.000184824 0.000194263)
(0.000149486 0.000185571 0.000194151)
(0.000148857 0.000186318 0.000194039)
(0.000148229 0.000187065 0.000193927)
(0.000147567 0.000187799 0.000193866)
(0.000146904 0.000188534 0.000193806)
(0.000146242 0.000189268 0.000193746)
(0.00014558 0.000190003 0.000193685)
(0.000144917 0.000190737 0.000193625)
(0.000144255 0.000191472 0.000193565)
(0.000143593 0.000192206 0.000193505)
(0.000142931 0.000192941 0.000193444)
(0.000142268 0.000193675 0.000193384)
(0.000141606 0.00019441 0.000193324)
(0.000140944 0.000195144 0.000193263)
(0.000140281 0.000195879 0.000193203)
(0.000139619 0.000196613 0.000193143)
(0.000138947 0.000197261 0.000192906)
(0.000138276 0.000197909 0.000192669)
(0.000137604 0.000198557 0.000192432)
(0.000136932 0.000199205 0.000192195)
(0.000136261 0.000199853 0.000191958)
(0.000135589 0.000200501 0.000191721)
(0.000134917 0.000201149 0.000191484)
(0.000134246 0.000201797 0.000191247)
(0.000133574 0.000202445 0.00019101)
(0.000132903 0.000203093 0.000190773)
(0.000132231 0.000203741 0.000190536)
(0.000131559 0.000204389 0.000190299)
(0.000130888 0.000205037 0.000190062)    )

    76
    (

(0.000165829 0.000166153 0.000197062)
(0.000166122 0.000166278 0.000196144)
(0.000166415 0.000166403 0.000195226)
(0.000166708 0.000166529 0.000194309)
(0.000167001 0.000166654 0.000193391)
(0.000167294 0.000166779 0.000192473)
(0.000167587 0.000166904 0.000191555)
(0.00016788 0.00016703 0.000190637)
(0.000168173 0.000167155 0.000189719)
(0.000168466 0.00016728 0.000188802)
(0.000168759 0.000167405 0.000187884)
(0.000169422 0.000167516 0.000187224)
(0.000170084 0.000167627 0.000186564)
(0.000170747 0.000167738 0.000185904)
(0.00017141 0.000167849 0.000185244)
(0.000172072 0.00016796 0.000184584)
(0.000172735 0.00016807 0.000183924)
(0.000173398 0.000168181 0.000183264)
(0.000174061 0.000168292 0.000182604)
(0.000174723 0.000168403 0.000181944)
(0.000175386 0.000168514 0.000181284)
(0.000176118 0.000168584 0.000180644)
(0.00017685 0.000168654 0.000180004)
(0.000177581 0.000168725 0.000179365)
(0.000178313 0.000168795 0.000178725)
(0.000179045 0.000168866 0.000178085)
(0.000179777 0.000168936 0.000177446)
(0.000180509 0.000169007 0.000176806)
(0.00018124 0.000169077 0.000176166)
(0.000181972 0.000169148 0.000175526)
(0.000182704 0.000169218 0.000174887)
(0.000183436 0.000169289 0.000174247)
(0.000184168 0.000169359 0.000173607)
(0.000184899 0.000169429 0.000172967)
(0.000185631 0.0001695 0.000172328)
(0.000186363 0.00016957 0.000171688)
(0.000187095 0.000169641 0.000171048)
(0.000187827 0.000169711 0.000170408)
(0.000188558 0.000169782 0.000169769)
(0.00018929 0.000169852 0.000169129)
(0.00019008 0.000170036 0.000168598)
(0.00019087 0.000170221 0.000168068)
(0.00019166 0.000170405 0.000167537)
(0.00019245 0.000170589 0.000167007)
(0.00019324 0.000170773 0.000166476)
(0.000194029 0.000170958 0.000165945)
(0.000194819 0.000171142 0.000165415)
(0.000195609 0.000171326 0.000164884)
(0.000196399 0.00017151 0.000164354)
(0.000197189 0.000171695 0.000163823)
(0.000197979 0.000171879 0.000163292)
(0.000198769 0.000172063 0.000162762)
(0.000199559 0.000172247 0.000162231)
(0.000200348 0.000172432 0.000161701)
(0.000201138 0.000172616 0.00016117)
(0.000201928 0.0001728 0.000160639)
(0.000202718 0.000172984 0.000160109)
(0.000203508 0.000173169 0.000159578)
(0.000204298 0.000173353 0.000159047)
(0.000205226 0.000173284 0.000158937)
(0.000206154 0.000173215 0.000158827)
(0.000207082 0.000173146 0.000158717)
(0.00020801 0.000173076 0.000158607)
(0.000208938 0.000173007 0.000158497)
(0.000209866 0.000172938 0.000158387)
(0.000210794 0.000172869 0.000158277)
(0.000211722 0.0001728 0.000158167)
(0.000212542 0.000172396 0.000157822)
(0.000213361 0.000171992 0.000157477)
(0.000214181 0.000171589 0.000157132)
(0.000215001 0.000171185 0.000156787)
(0.000215821 0.000170781 0.000156442)
(0.000216641 0.000170377 0.000156097)
(0.000217461 0.000169974 0.000155752)
(0.000218281 0.00016957 0.000155407)
(0.000219101 0.000169166 0.000155062)    )

    33
    (

(0.000130888 0.000205037 0.000190062)
(0.000130622 0.000205472 0.00019088)
(0.000130357 0.000205907 0.000191698)
(0.000130092 0.000206343 0.000192516)
(0.000129827 0.000206778 0.000193335)
(0.000129562 0.000207213 0.000194153)
(0.000129297 0.000207648 0.000194971)
(0.000129032 0.000208084 0.000195789)
(0.000128767 0.000208519 0.000196607)
(0.000128501 0.000208954 0.000197425)
(0.000128236 0.000209389 0.000198243)
(0.00012796 0.000209645 0.000199074)
(0.000127684 0.000209902 0.000199904)
(0.000127407 0.000210158 0.000200735)
(0.000127131 0.000210414 0.000201566)
(0.000126854 0.00021067 0.000202396)
(0.000126578 0.000210926 0.000203227)
(0.000126302 0.000211182 0.000204058)
(0.000126025 0.000211438 0.000204888)
(0.000125749 0.000211694 0.000205719)
(0.000125473 0.00021195 0.00020655)
(0.000125196 0.000212207 0.00020738)
(0.000124711 0.000212872 0.000207806)
(0.000124226 0.000213538 0.000208232)
(0.000123741 0.000214203 0.000208657)
(0.000123256 0.000214869 0.000209083)
(0.000122771 0.000215535 0.000209508)
(0.000122286 0.0002162 0.000209934)
(0.000121801 0.000216866 0.00021036)
(0.000121316 0.000217532 0.000210785)
(0.000120831 0.000218197 0.000211211)
(0.000120346 0.000218863 0.000211636)
(0.000119861 0.000219528 0.000212062)    )

    43
    (

(0.000130888 0.000205037 0.000190062)
(0.00013079 0.000204851 0.000189136)
(0.000130692 0.000204664 0.00018821)
(0.000130594 0.000204478 0.000187284)
(0.000130496 0.000204292 0.000186358)
(0.000130398 0.000204106 0.000185432)
(0.0001303 0.00020392 0.000184506)
(0.000130203 0.000203734 0.00018358)
(0.000130105 0.000203548 0.000182654)
(0.000130007 0.000203361 0.000181728)
(0.000129909 0.000203175 0.000180803)
(0.000129811 0.000202989 0.000179877)
(0.000129713 0.000202803 0.000178951)
(0.000129852 0.000202125 0.000178273)
(0.000129991 0.000201446 0.000177596)
(0.00013013 0.000200768 0.000176919)
(0.000130269 0.000200089 0.000176242)
(0.000130407 0.000199411 0.000175565)
(0.000130546 0.000198732 0.000174888)
(0.000130685 0.000198054 0.000174211)
(0.000130824 0.000197376 0.000173533)
(0.0001311 0.000196845 0.000172825)
(0.000131376 0.000196314 0.000172117)
(0.000131653 0.000195783 0.00017141)
(0.000131929 0.000195252 0.000170702)
(0.000132205 0.000194721 0.000169994)
(0.000132481 0.000194191 0.000169286)
(0.000132758 0.00019366 0.000168578)
(0.000133034 0.000193129 0.00016787)
(0.00013331 0.000192598 0.000167162)
(0.000133586 0.000192067 0.000166454)
(0.000133863 0.000191537 0.000165746)
(0.000134165 0.000191094 0.000164957)
(0.000134467 0.000190652 0.000164167)
(0.00013477 0.00019021 0.000163378)
(0.000135072 0.000189767 0.000162588)
(0.000135374 0.000189325 0.000161799)
(0.000135677 0.000188883 0.000161009)
(0.000135979 0.00018844 0.00016022)
(0.000136281 0.000187998 0.00015943)
(0.000136584 0.000187556 0.000158641)
(0.000136886 0.000187113 0.000157852)
(0.000137188 0.000186671 0.000157062)    )

    160
    (

(0.00020836 4.82102e-05 0.000122062)
(0.0002086 4.79081e-05 0.000121142)
(0.00020884 4.76059e-05 0.000120222)
(0.000209079 4.73038e-05 0.000119301)
(0.000209319 4.70017e-05 0.000118381)
(0.000209558 4.66996e-05 0.000117461)
(0.000209798 4.63975e-05 0.000116541)
(0.000210038 4.60954e-05 0.000115621)
(0.000210277 4.57932e-05 0.0001147)
(0.000210517 4.54911e-05 0.00011378)
(0.000210756 4.5189e-05 0.00011286)
(0.000210996 4.48869e-05 0.00011194)
(0.000211236 4.45848e-05 0.000111019)
(0.000211475 4.42827e-05 0.000110099)
(0.000211715 4.39806e-05 0.000109179)
(0.000211954 4.36784e-05 0.000108259)
(0.000212194 4.33763e-05 0.000107339)
(0.000212434 4.30742e-05 0.000106418)
(0.000212673 4.27721e-05 0.000105498)
(0.000212913 4.247e-05 0.000104578)
(0.000213152 4.21679e-05 0.000103658)
(0.000213387 4.16818e-05 0.00010282)
(0.000213622 4.11957e-05 0.000101982)
(0.000213857 4.07097e-05 0.000101144)
(0.000214093 4.02236e-05 0.000100306)
(0.000214328 3.97376e-05 9.94682e-05)
(0.000214563 3.92515e-05 9.86303e-05)
(0.000214798 3.87655e-05 9.77924e-05)
(0.000215033 3.82794e-05 9.69545e-05)
(0.000215268 3.77934e-05 9.61165e-05)
(0.000215503 3.73073e-05 9.52786e-05)
(0.000215738 3.68212e-05 9.44407e-05)
(0.000215973 3.63352e-05 9.36028e-05)
(0.000216208 3.58491e-05 9.27649e-05)
(0.000216443 3.53631e-05 9.1927e-05)
(0.000216678 3.4877e-05 9.10891e-05)
(0.000216913 3.4391e-05 9.02512e-05)
(0.000217148 3.39049e-05 8.94133e-05)
(0.000217383 3.34188e-05 8.85754e-05)
(0.000217618 3.29328e-05 8.77375e-05)
(0.000217853 3.24467e-05 8.68996e-05)
(0.000217975 3.19471e-05 8.60455e-05)
(0.000218096 3.14474e-05 8.51915e-05)
(0.000218217 3.09478e-05 8.43375e-05)
(0.000218339 3.04481e-05 8.34834e-05)
(0.00021846 2.99485e-05 8.26294e-05)
(0.000218581 2.94488e-05 8.17753e-05)
(0.000218703 2.89492e-05 8.09213e-05)
(0.000218824 2.84495e-05 8.00673e-05)
(0.000218946 2.79498e-05 7.92132e-05)
(0.000219067 2.74502e-05 7.83592e-05)
(0.000219084 2.65346e-05 7.85365e-05)
(0.000219101 2.5619e-05 7.87137e-05)
(0.000219118 2.47035e-05 7.8891e-05)
(0.000219135 2.37879e-05 7.90683e-05)
(0.000219152 2.28723e-05 7.92456e-05)
(0.000219169 2.19568e-05 7.94229e-05)
(0.000219186 2.10412e-05 7.96002e-05)
(0.000219203 2.01256e-05 7.97775e-05)
(0.00021922 1.921e-05 7.99548e-05)
(0.000219068 1.86646e-05 8.0773e-05)
(0.000218915 1.81191e-05 8.15913e-05)
(0.000218763 1.75736e-05 8.24095e-05)
(0.000218611 1.70281e-05 8.32278e-05)
(0.000218458 1.64827e-05 8.40461e-05)
(0.000217967 1.5963e-05 8.46382e-05)
(0.000217475 1.54433e-05 8.52304e-05)
(0.000216984 1.49237e-05 8.58226e-05)
(0.000216492 1.4404e-05 8.64147e-05)
(0.000216 1.38843e-05 8.70069e-05)
(0.0002153 1.38623e-05 8.76047e-05)
(0.000214601 1.38403e-05 8.82025e-05)
(0.000213901 1.38183e-05 8.88003e-05)
(0.000213201 1.37963e-05 8.93981e-05)
(0.000212501 1.37743e-05 8.99959e-05)
(0.000211801 1.37522e-05 9.05937e-05)
(0.000211101 1.37302e-05 9.11915e-05)
(0.000210401 1.37082e-05 9.17893e-05)
(0.000209701 1.36862e-05 9.23871e-05)
(0.000209001 1.36642e-05 9.29849e-05)
(0.00020816 1.38271e-05 9.34179e-05)
(0.000207319 1.39901e-05 9.38509e-05)
(0.000206477 1.4153e-05 9.42839e-05)
(0.000205636 1.4316e-05 9.47169e-05)
(0.000204794 1.44789e-05 9.51499e-05)
(0.00020382 1.46945e-05 9.51316e-05)
(0.000202846 1.49101e-05 9.51133e-05)
(0.000201871 1.51256e-05 9.5095e-05)
(0.000200897 1.53412e-05 9.50767e-05)
(0.000199923 1.55568e-05 9.50583e-05)
(0.000198944 1.57554e-05 9.50599e-05)
(0.000197966 1.5954e-05 9.50615e-05)
(0.000196988 1.61526e-05 9.50631e-05)
(0.00019601 1.63513e-05 9.50647e-05)
(0.000195031 1.65499e-05 9.50662e-05)
(0.000194053 1.67485e-05 9.50678e-05)
(0.000193075 1.69471e-05 9.50694e-05)
(0.000192097 1.71457e-05 9.5071e-05)
(0.000191119 1.73443e-05 9.50726e-05)
(0.00019014 1.75429e-05 9.50741e-05)
(0.000189177 1.77591e-05 9.50174e-05)
(0.000188214 1.79753e-05 9.49606e-05)
(0.00018725 1.81915e-05 9.49038e-05)
(0.000186287 1.84077e-05 9.4847e-05)
(0.000185324 1.86239e-05 9.47902e-05)
(0.000184525 1.88634e-05 9.42657e-05)
(0.000183726 1.91029e-05 9.37412e-05)
(0.000182927 1.93423e-05 9.32168e-05)
(0.000182128 1.95818e-05 9.26923e-05)
(0.000181329 1.98212e-05 9.21678e-05)
(0.00018055 2.01485e-05 9.16732e-05)
(0.00017977 2.04757e-05 9.11786e-05)
(0.000178991 2.08029e-05 9.06839e-05)
(0.000178212 2.11301e-05 9.01893e-05)
(0.000177432 2.14573e-05 8.96947e-05)
(0.000176653 2.17845e-05 8.92001e-05)
(0.000175874 2.21117e-05 8.87055e-05)
(0.000175095 2.24389e-05 8.82109e-05)
(0.000174315 2.27661e-05 8.77163e-05)
(0.000173536 2.30933e-05 8.72217e-05)
(0.000172965 2.33236e-05 8.64537e-05)
(0.000172394 2.35539e-05 8.56856e-05)
(0.000171822 2.37842e-05 8.49176e-05)
(0.000171251 2.40145e-05 8.41496e-05)
(0.00017068 2.42448e-05 8.33816e-05)
(0.000170109 2.44751e-05 8.26135e-05)
(0.000169537 2.47054e-05 8.18455e-05)
(0.000168966 2.49356e-05 8.10775e-05)
(0.000168395 2.51659e-05 8.03095e-05)
(0.000167824 2.53962e-05 7.95414e-05)
(0.000167571 2.54554e-05 7.85818e-05)
(0.000167318 2.55145e-05 7.76222e-05)
(0.000167065 2.55737e-05 7.66626e-05)
(0.000166812 2.56328e-05 7.5703e-05)
(0.000166559 2.5692e-05 7.47434e-05)
(0.000166306 2.57511e-05 7.37838e-05)
(0.000166053 2.58103e-05 7.28242e-05)
(0.0001658 2.58695e-05 7.18646e-05)
(0.000165547 2.59286e-05 7.09049e-05)
(0.000165294 2.59878e-05 6.99453e-05)
(0.000165213 2.60012e-05 6.89512e-05)
(0.000165132 2.60147e-05 6.7957e-05)
(0.000165052 2.60282e-05 6.69629e-05)
(0.000164971 2.60417e-05 6.59687e-05)
(0.00016489 2.60552e-05 6.49745e-05)
(0.00016481 2.60686e-05 6.39804e-05)
(0.000164729 2.60821e-05 6.29862e-05)
(0.000164649 2.60956e-05 6.1992e-05)
(0.000164568 2.61091e-05 6.09979e-05)
(0.000164487 2.61225e-05 6.00037e-05)
(0.000164407 2.6136e-05 5.90096e-05)
(0.000164326 2.61495e-05 5.80154e-05)
(0.000164245 2.6163e-05 5.70212e-05)
(0.000164165 2.61765e-05 5.60271e-05)
(0.000164084 2.61899e-05 5.50329e-05)
(0.000164004 2.62034e-05 5.40387e-05)
(0.000163923 2.62169e-05 5.30446e-05)
(0.000163842 2.62304e-05 5.20504e-05)
(0.000163762 2.62438e-05 5.10563e-05)
(0.000163681 2.62573e-05 5.00621e-05)    )

    21
    (

(0.00020836 4.82102e-05 0.000122062)
(0.000208296 4.86191e-05 0.000122962)
(0.000208231 4.9028e-05 0.000123862)
(0.000208167 4.9437e-05 0.000124762)
(0.000208103 4.98459e-05 0.000125662)
(0.000208038 5.02548e-05 0.000126562)
(0.000207974 5.06637e-05 0.000127462)
(0.000207909 5.10727e-05 0.000128362)
(0.000207845 5.14816e-05 0.000129262)
(0.00020778 5.18905e-05 0.000130162)
(0.000207716 5.22994e-05 0.000131062)
(0.000207652 5.27084e-05 0.000131962)
(0.000207587 5.31173e-05 0.000132862)
(0.000207523 5.35262e-05 0.000133762)
(0.000207458 5.39351e-05 0.000134662)
(0.000207394 5.43441e-05 0.000135562)