/*--------------------------------*- C++ -*----------------------------------*\
| =========                 |                                                 |
| \\      /  F ield         | OpenFOAM: The Open Source CFD Toolbox           |
|  \\    /   O peration     | Version:  2.1.1                                 |
|   \\  /    A nd           | Web:      www.OpenFOAM.org                      |
|    \\/     M anipulation  |                                                 |
\*---------------------------------------------------------------------------*/
FoamFile
{
    version     2.0;
    format      ascii;
    class       dictionary;
    object      blockMeshDict;
}
// * * * * * * * * * * * * * * * * * * * * * * * * * * * * * * * * * * * * * //

x0    0;
x1    1;
y0    0;
y1    1;
z0    0;
z1    1;

x2    2;
x3    3;
y2    0;
y3    1;
z2    0;
z3    1;

vertices
(
    ($x0 $y0 $z0)   // 0
    ($x1 $y0 $z0)   // 1
    ($x1 $y1 $z0)   // 2
    ($x0 $y1 $z0)   // 3
    ($x0 $y0 $z1)   // 4
    ($x1 $y0 $z1)   // 5
    ($x1 $y1 $z1)   // 6
    ($x0 $y1 $z1)   // 7
    ($x2 $y2 $z2)   // 8
    ($x3 $y2 $z2)   // 9
    ($x3 $y3 $z2)   // 10
    ($x2 $y3 $z2)   // 11
    ($x2 $y2 $z3)   // 12
    ($x3 $y2 $z3)   // 13
    ($x3 $y3 $z3)   // 14
    ($x2 $y3 $z3)   // 15
);

blocks
(
    hex (0 1 2 3 4 5 6 7) (2 2 2) simpleGrading (1 1 1)
    hex (8 9 10 11 12 13 14 15) (2 2 2) simpleGrading (1 1 1)
);

edges
(
);

boundary
(
    domainBoundary
    {
        type patch;
        faces
        (
            (3 7 6 2)
            (0 4 7 3)
            (2 6 5 1)
            (1 5 4 0)
            (0 3 2 1)
            (4 5 6 7)

            (11 15 14 10)
            (8 12 15 11)
            (10 14 13 9)
            (9 13 12 8)
            (8 11 10 9)
            (12 13 14 15)
        );
    }
);

mergePatchPairs
(
);

// ************************************************************************* //
