/*--------------------------------*- C++ -*----------------------------------*\
| =========                 |                                                 |
| \\      /  F ield         | OpenFOAM: The Open Source CFD Toolbox           |
|  \\    /   O peration     | Version:  2.2.0                                 |
|   \\  /    A nd           | Web:      www.OpenFOAM.com                      |
|    \\/     M anipulation  |                                                 |
\*---------------------------------------------------------------------------*/
FoamFile
{
    version     2.0;
    format      ascii;
    class       dictionary;
    location    "system";
    object      controlDict;
}
// * * * * * * * * * * * * * * * * * * * * * * * * * * * * * * * * * * * * * //

application     hbPOGraphFoam;

startFrom       latestTime;

startTime       6;

stopAt          endTime;

endTime         10;

deltaT          1e-3;

writeControl    runTime;

writeInterval   1e-2;

purgeWrite      20;

writeFormat     binary;

writePrecision  8;

writeCompression compressed;

timeFormat      general;

timePrecision   6;

libs
(
    "libfiniteVolume.so"
    "libgraph.so"
);

DebugSwitches
{
    vascularGraphRegions   1;
    circularTubeGraph      0;
    graphVelocityEngine    1;
    RBCCollection          1;
    regionAddRemoveFvMesh  0;
    RBCPathMover           1;
    meshToMeshMethod       0;
    meshToMeshMoving       0;
} 


functions
{
    #includeFunc    singleGraph.y_axis

    HbProbes
    {
        type        RBCProbe;
        functionObjectLibs  ("libmyFunctionObjects.so");
        graphName   graphDict;
        field       Hb;
        sampleGraphCoords
        ( 
            (0 11.785e-6) // vertex at (0, $y1, 0)
            (0 35.355e-6) 
            (1 11.785e-6) // vertex at ($x1, $y1, 0)
            (1 35.355e-6) 
            (2  0.1e-6) 
            (2 33.3e-6) 
            (3  0.1e-6) 
            (3 33.3e-6) 
        );
    }

    sampleRBCHb
    {
        type        sampleRBCField;
        functionObjectLibs  ("libmyFunctionObjects.so");
        graphName   graphDict;
        field       Hb;
    }

    steadyStateFields
    {
        type            fieldAverage;
        functionObjectLibs ("libfieldFunctionObjects.so");
        enabled         true;
        outputControl   outputTime;
        timeStart       2.0;

        fields
        (
            PO2
            {
                mean        on;
                prime2Mean  on;
                base        time;
            }

            Hb_euler
            {
                mean        on;
                prime2Mean  off;
                base        time;
            }

            in_RBC_euler
            {
                mean        on;
                prime2Mean  off;
                base        time;
            }
        );
    }

    minMax
    {
        type            fieldMinMax;
        functionObjectLibs ("libfieldFunctionObjects.so");
        enabled         true;
        log             true;
        write           true;

        fields
        (
            PO2
            Hb_euler
        );
    }

    probesMidstream
    {
        type probes;
        functionObjectLibs ("libsampling.so");
        enabled         true;
        outputControl   timeStep;
        outputInterval  1;

        probeLocations
        (
            (19.5e-6  29.7e-6  0)
            (19.5e-6  19.7e-6  0)
            (19.5e-6   9.7e-6  0)
            (19.5e-6   0.4e-6  0)
            (19.5e-6  -9.7e-6  0)
            (19.5e-6 -19.7e-6  0)
            (19.5e-6 -29.7e-6  0)
        );

        fields
        (
            PO2
        );
    };

    probesUpstream
    {
        type probes;
        functionObjectLibs ("libsampling.so");
        enabled         true;
        outputControl   timeStep;
        outputInterval  1;

        probeLocations
        (
            (5.5e-6  29.7e-6 0)
            (5.5e-6  19.7e-6 0)
            (5.5e-6   9.7e-6 0)
            (5.5e-6   0e-6   0)
            (5.5e-6  -9.7e-6 0)
            (5.5e-6 -19.7e-6 0)
            (5.5e-6 -29.7e-6 0)
        );

        fields
        (
            PO2
        );
    };

    probesDownstream
    {
        type probes;
        functionObjectLibs ("libsampling.so");
        enabled         true;
        outputControl   timeStep;
        outputInterval  1;

        probeLocations
        (
            (59.5e-6  29.7e-6 0)
            (59.5e-6  19.7e-6 0)
            (59.5e-6   9.7e-6 0)
            (59.5e-6   0e-6   0)
            (59.5e-6  -9.7e-6 0)
            (59.5e-6 -19.7e-6 0)
            (59.5e-6 -29.7e-6 0)
        );

        fields
        (
            PO2
        );
    };

   volumeAverages
   {
       type            volumeAverage;
       functionObjectLibs ("libsimpleSwakFunctionObjects.so");
       verbose         true;
       fields
       (
           PO2
       );

       ignore_unimplemented_simpleFunctionObject::updateMesh true;
       ignore_unimplemented_simpleFunctionObject::movePoints true;
   }

}


// ************************************************************************* //

