// -*- C++ -*-
// File generated by PyFoam - sorry for the ugliness

FoamFile
{
 version 2.0;
 format ascii;
 class dictionary;
 location "constant";
 object edgeVelocities;
}

edgeVelocities
  1000
  (

    (
      44.008

      48
      (
        -0.000344907619117
        0.000361421873926
        7.71600597891e-05
        -7.60310606515e-05
        -0.000108443599468
        0.000129018793656
        -0.000115921049723
        8.19167226834e-05
        -1.58038683383e-05
        -0.000114353637456
        7.80397229697e-05
        1.85446571e-05
        -0.000130184585616
        -4.76642784823e-05
        4.38986046656e-05
        -0.000409387401297
        -4.6591199575e-05
        -8.09746654631e-05
        -4.93510016505e-05
        2.09074213857e-05
        -5.14490204011e-05
        -0.000133209183738
        -9.36426478738e-05
        -0.000180215970097
        -4.88118243541e-05
        -0.000734144777722
        6.15722821884e-05
        2.97288513325e-05
        -0.00010273449964
        -0.000148967340569
        -6.21470300069e-05
        8.56970191147e-06
        -6.4949277509e-05
        -9.19431374115e-05
        0.000478989361508
        0.000104589029866
        -0.00016135491913
        4.23052922386e-05
        -0.000256148013793
        0.000446449215927
        0.000203661625881
        2.26827738771e-05
        7.91637266739e-06
        -0.000673722350645
        -2.72447202614e-05
        0.000340352790254
        -0.000236818777913
        -0.000387962122918
      )
    )

    (
      44.012

      48
      (
        -0.00034694482925
        0.00036151097948
        7.52461800249e-05
        -6.07944709954e-05
        -0.000106453029864
        0.000130194412566
        -0.00011787834548
        9.14980011618e-05
        -4.07625394628e-05
        -0.000114486241713
        7.82415300995e-05
        2.47468540679e-05
        -0.000127989172707
        -4.74905295824e-05
        4.26426485024e-05
        -0.000409270653312
        -4.74228061437e-05
        -8.17125064027e-05
        -4.47108903725e-05
        2.30356296459e-05
        -5.10926295725e-05
        -0.000132910408478
        -9.62467856542e-05
        -0.000180430070572
        -4.8633892346e-05
        -0.000734325775006
        5.91946448731e-05
        4.67769779927e-05
        -0.000108404164204
        -0.000145363653392
        -6.17875713773e-05
        5.38026000503e-06
        -6.51172333497e-05
        -9.19192750831e-05
        0.000477090004631
        0.000104859492281
        -0.000159990054107
        4.05091101843e-05
        -0.000253981315272
        0.000444678891872
        0.000200996413416
        3.55468936763e-05
        7.78905781997e-06
        -0.000351183194123
        -2.97909483296e-05
        0.000341708408645
        -0.000236237018764
        -0.000387691232341
      )
    )

    (
      44.016

      48
      (
        -0.000347861372019
        0.000361907105082
        7.95580304808e-05
        -6.30322220377e-05
        -0.000106209039804
        0.000135331629509
        -0.000118670293967
        9.40806845585e-05
        -4.28675887455e-05
        -0.000114095912457
        7.8034214245e-05
        2.70407313086e-05
        -0.000130314128012
        -4.72387763426e-05
        4.23413151887e-05
        -0.000409659302283
        -4.5716851958e-05
        -8.4936722128e-05
        -4.5160969167e-05
        2.26183574591e-05
        -5.20499320665e-05
        -0.000135813761275
        -9.55860899771e-05
        -0.000180674395088
        -4.83760779972e-05
        -0.000735130412365
        5.87329448491e-05
        4.48888315574e-05
        -0.000108274160152
        -0.000144803288735
        -6.12585557807e-05
        7.26914878703e-06
        -6.49446928222e-05
        -9.15362097363e-05
        0.000478392735868
        0.00010458164706
        -0.000159628580713
        4.11831422064e-05
        -0.0002534074828
        0.000436161411804
        0.000212548024406
        3.26578429075e-05
        7.62038955664e-06
        -0.000369950341919
        -2.92915053479e-05
        0.000342432248653
        -0.000250245019957
        -0.00040023321472
      )
    )

    (
      44.02

      48
      (
        -0.000343519017846
        0.000360641719424
        8.02913873397e-05
        -6.16341385701e-05
        -0.000106289756648
        0.000130654014092
        -0.000118546286718
        9.45051591126e-05
        -4.30517450913e-05
        -0.000116072018
        8.08895430614e-05
        2.70709779724e-05
        -0.000128898085335
        -4.94036812836e-05
        4.42218029572e-05
        -0.000408575530077
        -4.35015178863e-05
        -8.20009611213e-05
        -4.97323380845e-05
        2.84740860219e-05
        -5.12735802039e-05
        -0.000132197777024
        -0.000104809537599
        -0.000179770981047
        -5.05931043131e-05
        -0.000732560074652
        6.13067893073e-05
        4.6789796197e-05
        -0.000109178642643
        -0.000146675817728
        -6.18363172211e-05
        1.13670180389e-05
        -6.73210665025e-05
        -9.13588467676e-05
        0.000487449282031
        0.000108408365806
        -0.000175239641258
        4.11819949119e-05
        -0.000278189758875
        0.000452379108376
        0.000204296058548
        3.33018769081e-05
        7.64174209647e-06
        -0.000348926224214
        -2.90110575758e-05
        0.000339198532329
        -0.000239635130494
        -0.000400158774474
      )
    )

    (
      44.024

      48
      (
        -0.000281080941382
        0.000348668903213
        7.47109890597e-05
        -6.01871464418e-05
        -0.000106828548081
        8.88916145124e-05
        -0.000133852169996
        0.000110397621855
        -5.57294066168e-05
        -0.000118763242047
        8.10840816494e-05
        3.98505762934e-05
        -0.000137538705764
        -7.81393788152e-05
        6.96668658299e-05
        -0.000406115127476
        -3.19635256048e-05
        -5.57900794423e-05
        -5.29003190157e-05
        3.12328360866e-05
        -5.30880042714e-05
        -0.000123059393562
        -0.000106121783572
        -0.000169308860123
        -8.00206308648e-05
        -0.000708240073208
        9.64225217864e-05
        4.80653020875e-05
        -0.000109324999223
        -0.000171673199552
        -6.24410931476e-05
        3.28105001859e-05
        -6.74829730323e-05
        -9.54474716778e-05
        0.000482370834927
        0.000108669086903
        -0.000187242988296
        4.73792806631e-05
        -0.000289454327307
        0.000447666036765
        0.000214869513187
        4.47104508479e-05
        7.60025874978e-06
        -0.000348160076312
        -3.04020832042e-05
        0.00030361596579
        -0.000253325398181
        -0.00042283103415
      )
    )

    (
      44.028

      48
      (
        -0.000287861625141
        0.000353209892985
        7.52126101412e-05
        -7.88597927951e-05
        -9.4483255451e-05
        8.83574685062e-05
        -0.000142481522897
        0.000111710056764
        -5.68387780816e-05
        -0.000114630036951
        8.00991387379e-05
        4.09887360078e-05
        -0.00016289611001
        -7.71338029091e-05
        6.82287395292e-05
        -0.000410625339148
        -2.56408581296e-05
        -5.54548391805e-05
        -5.8044261175e-05
        2.64920595458e-05
        -7.1530248617e-05
        -0.000130534739534
        -9.9958091278e-05
        -0.000172113070479
        -7.89908451203e-05
        -0.00071746404156
        9.4117607482e-05
        2.60461384944e-05
        -0.000101091071733
        -0.000157993003009
        -6.24212655302e-05
        3.38002043027e-05
        -6.66632452315e-05
        -8.99724472457e-05
        0.000487759515955
        0.000107349063976
        -0.00018458004695
        3.77846861087e-05
        -0.000285337751819
        0.000452667022117
        0.000201614243268
        4.59298038445e-05
        7.75302726119e-06
        -0.000352513866771
        -3.10281337116e-05
        0.000309945870091
        -0.000241165824191
        -0.0004383080063
      )
    )

    (
      44.032

      48
      (
        -0.000303192395104
        0.000402171106722
        7.24372881574e-05
        -8.06848122549e-05
        -0.00010063371835
        9.0496834322e-05
        -0.000144168300557
        0.000112682729799
        -5.77832841594e-05
        -0.000113833937047
        7.41110031181e-05
        4.19479657092e-05
        -0.000184333062149
        -8.41165154219e-05
        7.35756512197e-05
        -0.000429675272614
        -3.12252423414e-05
        -5.67975461329e-05
        -4.81525609897e-05
        1.32961778299e-05
        -8.14485337617e-05
        -0.000150465254948
        -7.99501906922e-05
        -0.000220698606465
        -8.61416705926e-05
        -0.000823295782645
        0.00010100779831
        2.36445812136e-05
        -0.000100001589748
        -0.00016880975022
        -6.24402181911e-05
        2.88795275437e-05
        -6.16795642632e-05
        -9.57147599018e-05
        0.000493594161287
        9.93237497978e-05
        -0.000149359719539
        4.16876072702e-05
        -0.00023084811913
        0.000466711785547
        0.000208921861008
        5.13460940408e-05
        7.78298939025e-06
        -0.000369807743991
        -3.23105186735e-05
        0.000357073697427
        -0.000250265928315
        -0.0004381661074
      )
    )

    (
      44.036

      48
      (
        -0.000334834732445
        0.000409205580396
        8.68928498741e-05
        -8.05904603075e-05
        -0.000103400621036
        8.06332645084e-05
        -0.000156575842795
        0.000125142499441
        -6.77488680467e-05
        -0.00011401024716
        7.22478575885e-05
        5.21211495928e-05
        -0.000193186555525
        -8.97867737088e-05
        7.46416406485e-05
        -0.000475389427034
        -2.40007966562e-05
        -5.6065871748e-05
        -4.58478806155e-05
        1.69625835871e-05
        -8.53446008269e-05
        -0.000146827538848
        -8.46736065216e-05
        -0.000199655626012
        -9.19484437224e-05
        -0.00083769625153
        0.000106843362393
        2.50017207237e-05
        -0.000101465176351
        -0.000175582370586
        -6.24488734072e-05
        4.43745341284e-05
        -6.07856459855e-05
        -9.72565916237e-05
        0.000492469392795
        9.78842565651e-05
        -0.000151050357903
        4.37235230309e-05
        -0.000233461144167
        0.000455046956212
        0.000209151649239
        5.04147092092e-05
        8.32244686015e-06
        -0.000369122721431
        -3.3271703642e-05
        0.000360101053072
        -0.00025069237112
        -0.000465501582514
      )
    )

    (
      44.04

      48
      (
        -0.000336825789957
        0.000410402637879
        8.43246596651e-05
        -7.30076361216e-05
        -0.000102661949688
        7.99085503437e-05
        -0.000154208434161
        0.000128495044614
        -7.14810242921e-05
        -0.000114995248995
        7.32495364305e-05
        5.56802116721e-05
        -0.0001910876943
        -8.90487443133e-05
        7.41326555638e-05
        -0.000476527541279
        -2.50634204412e-05
        -5.55619639419e-05
        -4.64699180555e-05
        1.57051371087e-05
        -8.44602501525e-05
        -0.000146880392146
        -8.41477988561e-05
        -0.000200433946776
        -9.119264583e-05
        -0.000840146781567
        0.000106179902289
        2.25141914539e-05
        -9.05214636607e-05
        -0.000174397598163
        -6.33705935178e-05
        4.1813040331e-05
        -6.16284072453e-05
        -9.76495293006e-05
        0.000492892837488
        9.92413707003e-05
        -0.000151018656304
        4.3157698504e-05
        -0.000233412146655
        0.000455438223612
        0.000206728595618
        5.05403394608e-05
        8.63529711596e-06
        -0.000370576177198
        -3.42174834181e-05
        0.000361924712809
        -0.000248258528702
        -0.000478536611877
      )
    )

    (
      44.044

      48
      (
        -0.000352220280585
        0.000470237949841
        8.41450552711e-05
        -8.74852688313e-05
        -0.000100901968247
        7.19672882541e-05
        -0.000156165178023
        0.000128156837285
        -7.12529845749e-05
        -0.00012898623076
        8.42475759371e-05
        5.465011738e-05
        -0.000189754115555
        -0.000100339080896
        8.3900401273e-05
        -0.000502915087507
        -2.1068279532e-05
        -5.00402504835e-05
        -4.54261650866e-05
        9.0630666846e-06
        -8.28960887041e-05
        -0.000141097867935
        -8.65330476221e-05
        -0.000257647804111
        -0.000102754803985
        -0.000970328929188
        0.000120399419451
        2.45327933601e-05
        -0.000105730979752
        -0.000182585174251
        -6.62897984319e-05
        4.75809377008e-05
        -7.08815942366e-05
        -0.000107058140064
        0.000493337575846
        0.000114141949855
        -0.000152939609848
        4.49208761213e-05
        -0.000236381143344
        0.000455849166585
        0.000213947910711
        5.6329083131e-05
        8.66988922012e-06
        -0.000355701268331
        -3.64160233497e-05
        0.000415794043968
        -0.000254712651088
        -0.000483636493094
      )
    )

    (
      44.048

      48
      (
        -0.000353871837189
        0.000470983830407
        8.36289082443e-05
        -7.4338297265e-05
        -0.000100985312079
        7.38713215951e-05
        -0.000167499647344
        0.000145276455393
        -8.4990485556e-05
        -0.000113913043251
        7.17567262651e-05
        7.3423126257e-05
        -0.000194218129833
        -0.000100049460473
        8.32601213614e-05
        -0.00050346529424
        -2.2239725096e-05
        -5.13641617719e-05
        -4.73777119805e-05
        1.65574352848e-05
        -8.50280041607e-05
        -0.000145258840242
        -8.37679452385e-05
        -0.000258249397076
        -0.000102458210779
        -0.000971868042505
        0.000119234119291
        2.08108976628e-05
        -8.98026660027e-05
        -0.000181854646202
        -4.89116083591e-05
        4.55213146019e-05
        -6.03724332515e-05
        -9.76826660389e-05
        0.000490516912281
        9.72188524124e-05
        -0.00015145394859
        4.55926932186e-05
        -0.000234084927816
        0.000453242843453
        0.000211149221791
        5.2314607935e-05
        8.7419372466e-06
        -0.000355159985348
        -3.80222170757e-05
        0.000417272556067
        -0.000253649022324
        -0.000515738228915
      )
    )

    (
      44.052

      48
      (
        -0.000426808590154
        0.000588273987951
        9.18056792922e-05
        -7.32063666495e-05
        -8.57414629804e-05
        0.000110497397606
        -0.000170636873436
        0.000152479064464
        -8.05883000869e-05
        -0.0001133968379
        7.29953629315e-05
        7.6589215492e-05
        -0.000182068598942
        -0.000122397069737
        0.000103278018329
        -0.000648718723259
        -2.48419729534e-05
        -7.6830982355e-05
        -5.02823634329e-05
        2.25270659965e-05
        -8.36727602194e-05
        -0.000147459581654
        -9.1686511277e-05
        -0.000308599393887
        -0.000125343852036
        -0.00122382667649
        0.000148784746917
        2.18199895769e-05
        -8.99212260638e-05
        -0.00018753814976
        -4.8655507115e-05
        2.7811192885e-05
        -6.1414558685e-05
        -9.53869086281e-05
        0.00049872339005
        9.88970063853e-05
        -0.000164197687103
        3.99819348426e-05
        -0.000253781456944
        0.000469507307021
        0.0002188588644
        4.04271935793e-05
        8.69424751828e-06
        -0.000343091483223
        -3.80669858516e-05
        0.000521945709161
        -0.000260328640914
        -0.000515145136159
      )
    )

    (
      44.056

      48
      (
        -0.0004277138632
        0.000589445170129
        9.66394991889e-05
        -7.32815832601e-05
        -8.69635624271e-05
        0.000114388405318
        -0.000170836731845
        0.000152661974792
        -8.0686226107e-05
        -0.000112999470885
        7.24019061133e-05
        7.66241641954e-05
        -0.000183783834884
        -0.000122430891001
        0.000103437768548
        -0.0006499895652
        -2.3810339291e-05
        -7.95364754374e-05
        -5.09286278301e-05
        2.28718578698e-05
        -8.43406868744e-05
        -0.000147235638364
        -9.1542297329e-05
        -0.000309229424261
        -0.000125378487567
        -0.00122626316701
        0.000149095389848
        2.05779566671e-05
        -8.85965990402e-05
        -0.000188949866378
        -4.89274343149e-05
        3.07278711314e-05
        -6.0915254522e-05
        -9.54527833542e-05
        0.000501065648881
        9.80929676028e-05
        -0.000164664413155
        4.06134651886e-05
        -0.000254502821657
        0.000460947847152
        0.000225257525233
        4.17293180299e-05
        8.51371553144e-06
        -0.000341483760259
        -3.83137430794e-05
        0.000523033409542
        -0.000260210176416
        -0.000530905121391
      )
    )

    (
      44.06

      48
      (
        -0.000515853998687
        0.000683555931803
        8.6192115235e-05
        -7.16166196976e-05
        -8.21472504125e-05
        5.38705439975e-05
        -0.00014851101275
        0.000129464980231
        -6.42770178565e-05
        -0.000109235746823
        6.90657166826e-05
        5.87794037961e-05
        -0.00015341314129
        -0.000145482004338
        0.000123241178256
        -0.000737192315496
        -3.42848414036e-06
        -3.74572334281e-05
        -4.43989977731e-05
        1.20184171925e-05
        -6.5893990303e-05
        -0.000101942172184
        -7.61646761779e-05
        -0.000363712497434
        -0.000148984570176
        -0.00143397138304
        0.000177841225194
        1.8904205817e-05
        -8.52319200361e-05
        -0.0002042709502
        -4.72582953653e-05
        6.36973279699e-05
        -5.81083556541e-05
        -9.33692183313e-05
        0.000396573870906
        9.35729661373e-05
        -0.000139028008844
        4.34520672766e-05
        -0.000214879583648
        0.000364822199325
        0.000224617605132
        6.22492790662e-05
        8.5786909455e-06
        -0.000349126098526
        -3.80527906524e-05
        0.000603058305855
        -0.000259781162731
        -0.000459274786562
      )
    )

    (
      44.064

      48
      (
        -0.000648199042126
        0.000852211680388
        9.30052850327e-05
        -7.35073806441e-05
        -8.12500360661e-05
        5.04760592945e-05
        -0.000151115332813
        0.000134777437077
        -6.76742165844e-05
        -0.000107578489074
        7.11541303786e-05
        6.22429221046e-05
        -0.000171986280008
        -0.000183649712184
        0.000155127042372
        -0.000926791070084
        2.931153678e-06
        -3.50969824179e-05
        -4.20365860734e-05
        1.15493247124e-05
        -7.31509161114e-05
        -0.000105649318205
        -7.75197112907e-05
        -0.000440570812659
        -0.000188071188304
        -0.00180315128016
        0.000223580512669
        2.00273870603e-05
        -8.81815299038e-05
        -0.00023526691519
        -4.84492560572e-05
        7.45001539758e-05
        -5.98654399447e-05
        -8.82362592554e-05
        0.000398249408189
        9.64024316585e-05
        -0.000143167724444
        5.02388162993e-05
        -0.000215002697794
        0.00036636358478
        0.000230561954901
        6.27733650659e-05
        9.3827158417e-06
        -0.000347690732139
        -3.85528019718e-05
        0.00075028721709
        -0.000265759010724
        -0.000462328922571
      )
    )

    (
      44.068

      48
      (
        -0.000660716492554
        0.000863242681102
        9.23073129626e-05
        -7.38840735259e-05
        -7.15743536124e-05
        5.67243771146e-05
        -0.000122758529243
        0.000103671946836
        -4.56580072565e-05
        -0.000102815628982
        6.94041830985e-05
        3.79063863975e-05
        -0.000131519571117
        -0.000180884549619
        0.000154230078445
        -0.00093788008056
        4.40641498368e-06
        -3.9441558911e-05
        -3.77153378447e-05
        1.45203443954e-06
        -5.20182056814e-05
        -7.80317735671e-05
        -6.44381257984e-05
        -0.00044695840212
        -0.000185239452804
        -0.00182649121262
        0.000223169523024
        1.72005250132e-05
        -8.53504628945e-05
        -0.000225517449434
        -4.76533515504e-05
        6.89462749172e-05
        -5.83931239562e-05
        -8.26704170431e-05
        0.000325662413991
        9.40315338319e-05
        -0.00012191130478
        4.67224251109e-05
        -0.000183080785289
        0.000299588265455
        0.00022499718362
        7.72669901986e-05
        7.77752053568e-06
        -0.000350918091114
        -3.97236140114e-05
        0.000763075225153
        -0.000261133951483
        -0.000393646004192
      )
    )

    (
      44.072

      48
      (
        -0.000704834908871
        0.00111318885404
        8.62696160257e-05
        -7.15416710806e-05
        -6.2359901474e-05
        3.68221851134e-05
        -0.000136212288984
        0.000119317628044
        -5.66404727567e-05
        -0.000116235097866
        7.88145703976e-05
        5.00644956656e-05
        -0.000133600415846
        -0.000223147085023
        0.000189881189744
        -0.0010316224081
        1.29498022726e-05
        -2.56031790432e-05
        -3.66675509876e-05
        -3.79340822657e-06
        -5.02954044005e-05
        -6.84663752749e-05
        -6.69775937348e-05
        -0.000700602357185
        -0.000228519483901
        -0.00207811235668
        0.000274523342145
        1.97712837e-05
        -8.61365906284e-05
        -0.000252291432573
        -4.79837991596e-05
        7.66402492795e-05
        -6.47656926263e-05
        -8.61652249827e-05
        0.000314555829539
        0.000107790016425
        -0.000124062000313
        5.28534287756e-05
        -0.000186310600833
        0.000289370929256
        0.000235589000166
        8.89637356086e-05
        1.02354277131e-05
        -0.000352710170951
        -3.9345885039e-05
        0.000984731890882
        -0.000270354639296
        -0.000415749753377
      )
    )

    (
      44.076

      48
      (
        -0.000867880295023
        0.00114553090526
        8.59047179783e-05
        -7.01824031971e-05
        -7.24438630088e-05
        2.9668948057e-05
        -0.000135981926047
        0.000119623936788
        -5.66994609521e-05
        -0.000115784285093
        7.90703799745e-05
        5.01849573117e-05
        -0.00012718578655
        -0.000200391361182
        0.000170284689583
        -0.00112870547875
        1.09512723478e-05
        -2.06293946649e-05
        -3.95185784718e-05
        -4.68309259208e-07
        -4.64033847852e-05
        -6.69337947582e-05
        -7.09955450978e-05
        -0.00066965324528
        -0.000205215902466
        -0.00213848882924
        0.000246049609411
        1.88659214785e-05
        -8.39063957885e-05
        -0.000242311860935
        -4.7783604531e-05
        8.15900026584e-05
        -6.497590356e-05
        -8.51656769364e-05
        0.000320136738367
        0.000108139872021
        -0.000132186525017
        5.34442294626e-05
        -0.000198511638018
        0.000293189584167
        0.000224290335893
        9.18039608361e-05
        1.02211387805e-05
        -0.000333845157148
        -3.8772169596e-05
        0.00103970054222
        -0.000258079439622
        -0.000414434729988
      )
    )

    (
      44.08

      48
      (
        -0.00087016063118
        0.00114685268597
        9.17302664252e-05
        -7.09788209645e-05
        -7.34012995206e-05
        3.90529165863e-05
        -0.00013955336288
        0.000123195301066
        -5.8999589221e-05
        -0.000115031280419
        7.81300443973e-05
        5.27872852596e-05
        -0.000123775677855
        -0.000199577937484
        0.000169686828653
        -0.00112986603809
        1.04903474566e-05
        -2.71542498752e-05
        -3.96484214993e-05
        -7.87628429823e-08
        -4.33925541241e-05
        -6.53523924626e-05
        -7.05885021869e-05
        -0.000670534337528
        -0.000204382895108
        -0.002140956343
        0.000245242615713
        1.74495568051e-05
        -8.3031373197e-05
        -0.000242685904276
        -4.76478471156e-05
        8.15667691524e-05
        -6.42031849542e-05
        -8.51167267074e-05
        0.000317005042484
        0.000106853830788
        -0.000131801895121
        5.57529015785e-05
        -0.000197934018546
        0.000290321495305
        0.000212486466819
        8.78559605909e-05
        9.94381149348e-06
        -0.000547940571389
        -3.67412321935e-05
        0.00104173395124
        -0.000239300632796
        -0.000430090328847
      )
    )

    (
      44.084

      48
      (
        -0.000754945966349
        0.00115870700352
        8.75776923908e-05
        -6.47124224866e-05
        -7.93109126888e-05
        1.19922752705e-05
        -0.000151301874686
        0.00013858986116
        -7.00624050977e-05
        -0.000117225523737
        7.79528975518e-05
        6.51283286972e-05
        -0.000120400528786
        -0.000215350458941
        0.000181812579715
        -0.00104000383508
        1.61752344863e-05
        -8.33846144487e-06
        -3.87592379962e-05
        9.20598191742e-07
        -3.75359164497e-05
        -5.59601779429e-05
        -7.15662987359e-05
        -0.00075509005155
        -0.000220535149406
        -0.00216308610444
        0.000261985434799
        2.36545789743e-05
        -8.43810330716e-05
        -0.000260132907132
        -4.76365867266e-05
        9.69371187367e-05
        -6.40576149398e-05
        -8.87163110143e-05
        0.000304500477261
        0.000106611557547
        -0.000132121324204
        6.41304236519e-05
        -0.000198413722437
        0.000278869487964
        0.000212210304901
        0.000109301457931
        1.13553774874e-05
        -0.000508601311149
        -3.4372505347e-05
        0.00104161552094
        -0.000235138221027
        -0.000456808494834
      )
    )

    (
      44.088

      48
      (
        -0.000716326252729
        0.00116373923158
        8.32791703504e-05
        -6.3610354184e-05
        -8.6369248398e-05
        -3.05266803202e-05
        -0.000149435816455
        0.00014015734549
        -7.16386020597e-05
        -0.000110921938784
        7.64982500716e-05
        6.68775263021e-05
        -0.000141124615373
        -0.000198983613306
        0.000167601470846
        -0.00111812918001
        2.5767953425e-05
        2.12257925332e-05
        -3.78492437562e-05
        2.56998054925e-06
        -5.11929218828e-05
        -5.69146783923e-05
        -7.21286676456e-05
        -0.000702097926215
        -0.000203774262221
        -0.00217248031933
        0.000241266642299
        2.40435495566e-05
        -8.38313555017e-05
        -0.000252598232425
        -4.76683665924e-05
        0.000119315570454
        -6.43617084654e-05
        -8.72663303535e-05
        0.000304571924289
        0.000104622122409
        -0.000131887633652
        6.20569942903e-05
        -0.000198062776725
        0.000278934921018
        0.000224104490698
        0.00010213073801
        1.1389335145e-05
        -0.000534776149269
        -3.57997603853e-05
        0.00106188391207
        -0.000249118707602
        -0.000456410533355
      )
    )

    (
      44.092

      48
      (
        -0.000681586424062
        0.00126403281441
        8.86429043518e-05
        -6.60602538356e-05
        -8.44104108519e-05
        -1.45830884165e-07
        -0.000155154059088
        0.000145514053091
        -7.51835090088e-05
        -0.000108255368639
        7.22696383892e-05
        7.06678740469e-05
        -0.000146817496255
        -0.000196816081603
        0.000166135546033
        -0.00107540808655
        1.7543744158e-05
        1.01399040427e-07
        -2.98989656849e-05
        -5.48032687634e-06
        -5.64943917907e-05
        -7.10174487527e-05
        -5.91358799047e-05
        -0.000868931461731
        -0.000201554545903
        -0.00235970940721
        0.000239377525977
        2.28966927868e-05
        -8.4737068696e-05
        -0.000249366006316
        -4.82657989607e-05
        0.000102838908193
        -6.08039712353e-05
        -8.80000891369e-05
        0.00030576410898
        9.88389008495e-05
        -0.000106944437171
        5.78405693981e-05
        -0.000160574064444
        0.000285302236753
        0.000214618267434
        9.55271693523e-05
        1.15670965293e-05
        -0.000495493797612
        -3.53074550717e-05
        0.00115996035849
        -0.000229398719121
        -0.000472649896672
      )
    )

    (
      44.096

      48
      (
        -0.000526740407666
        0.00129907652879
        7.69347056269e-05
        -6.61979199431e-05
        -8.89537639405e-05
        -3.95021123057e-05
        -0.000157155315725
        0.000147684111576
        -7.65563326997e-05
        -0.000112441673925
        7.348222098e-05
        7.20939626931e-05
        -0.000149725731812
        -0.000221677406081
        0.000185761275942
        -0.000930162374981
        2.4198386619e-05
        2.74665843658e-05
        -3.16189155643e-05
        -5.51749102826e-06
        -5.3415986056e-05
        -6.43855498743e-05
        -6.01904877734e-05
        -0.00102684930796
        -0.000227014421564
        -0.00242512937223