// -*- C++ -*-
// File generated by PyFoam - sorry for the ugliness

FoamFile
{
 version 2.0;
 format ascii;
 class dictionary;
 location "constant";
 object graphDict;
}


edgeType polygonal;

tubeOptions
{
    useEffectiveDiameter  true;
    minimalDiameter       3e-06;
    outerInnerDiameterRatio 1.25;
}

edgePoints
  48
  (

    (

(0.00753084 0.00746503 0.00104867)
(0.00753167 0.00746455 0.00104966)
(0.00753242 0.00746433 0.00105066)
(0.00753297 0.00746425 0.00105165)
(0.00753358 0.00746428 0.00105264)
(0.00753408 0.00746443 0.00105364)
(0.0075347 0.00746478 0.00105463)
(0.00753525 0.007465 0.00105562)
(0.00753603 0.00746521 0.0010566)
(0.00753692 0.00746551 0.00105757)
(0.00753785 0.00746604 0.00105853)
(0.00753882 0.00746658 0.00105944)
(0.0075398 0.0074669 0.00106027)
(0.00754079 0.00746716 0.00106093)
(0.00754178 0.00746749 0.00106176)
(0.00754277 0.00746805 0.00106266)
(0.00754376 0.00746862 0.00106361)
(0.00754476 0.00746901 0.00106457)    )

    43
    (

(0.00743442 0.00741831 0.00107054)
(0.00743592 0.00741782 0.00107201)
(0.00743716 0.00741759 0.00107323)
(0.00743828 0.00741748 0.00107429)
(0.00743933 0.00741746 0.00107525)
(0.00744036 0.00741751 0.00107608)
(0.00744137 0.00741764 0.0010767)
(0.00744237 0.00741795 0.00107742)
(0.00744337 0.00741807 0.00107811)
(0.00744436 0.00741806 0.00107859)
(0.00744536 0.00741793 0.00107914)
(0.00744635 0.00741761 0.00107951)
(0.00744735 0.00741743 0.00107988)
(0.00744834 0.00741731 0.00108047)
(0.00744933 0.00741719 0.00108104)
(0.00745033 0.00741701 0.0010814)
(0.00745132 0.00741667 0.00108171)
(0.00745232 0.0074165 0.00108215)
(0.00745331 0.00741641 0.00108243)
(0.0074543 0.00741637 0.0010827)
(0.0074553 0.00741635 0.00108308)
(0.0074563 0.00741635 0.00108327)
(0.0074573 0.00741637 0.00108337)
(0.00745829 0.00741641 0.00108342)
(0.0074593 0.00741648 0.00108345)
(0.00746032 0.00741663 0.00108347)
(0.00746137 0.00741694 0.0010835)
(0.00746248 0.00741705 0.00108354)
(0.00746369 0.00741703 0.00108362)
(0.00746512 0.00741736 0.00108379)
(0.00746698 0.0074182 0.00108412)
(0.00746972 0.00741999 0.00108478)
(0.00747172 0.00742261 0.00108611)
(0.00747298 0.00742439 0.00108727)
(0.00747364 0.00742573 0.00108835)
(0.00747402 0.00742681 0.00108938)
(0.00747432 0.00742765 0.0010904)
(0.00747469 0.0074282 0.0010914)
(0.00747482 0.00742873 0.0010924)
(0.00747526 0.00742899 0.0010934)
(0.00747574 0.00742913 0.00109439)
(0.007476 0.0074292 0.00109539)
(0.00747617 0.00742925 0.00109638)    )

    31
    (

(0.00746623 0.00748392 0.00109042)
(0.0074676 0.00748301 0.00109141)
(0.00746867 0.00748214 0.00109241)
(0.00746945 0.00748138 0.0010934)
(0.00746987 0.00748085 0.00109439)
(0.00747011 0.00748026 0.00109539)
(0.0074703 0.00747985 0.00109638)
(0.00747053 0.00747938 0.00109738)
(0.00747093 0.00747912 0.00109837)
(0.00747119 0.00747896 0.00109936)
(0.00747145 0.00747879 0.00110036)
(0.00747182 0.00747856 0.00110135)
(0.00747201 0.00747812 0.00110235)
(0.00747211 0.00747777 0.00110334)
(0.00747217 0.00747732 0.00110433)
(0.00747222 0.00747706 0.00110533)
(0.00747228 0.00747685 0.00110632)
(0.00747239 0.00747659 0.00110732)
(0.00747258 0.00747614 0.00110831)
(0.00747297 0.00747578 0.0011093)
(0.00747326 0.00747532 0.0011103)
(0.00747357 0.00747504 0.00111129)
(0.00747408 0.00747479 0.00111228)
(0.00747454 0.00747444 0.00111326)
(0.00747517 0.00747434 0.00111424)
(0.00747579 0.00747391 0.00111519)
(0.00747623 0.00747344 0.00111611)
(0.00747669 0.00747321 0.00111695)
(0.00747741 0.00747309 0.00111763)
(0.00747826 0.00747303 0.001118)
(0.00747915 0.00747298 0.00111825)    )

    40
    (

(0.00755768 0.00733581 0.0011103)
(0.00755685 0.00733587 0.00111129)
(0.00755611 0.00733595 0.00111229)
(0.00755557 0.00733611 0.00111328)
(0.00755496 0.00733641 0.00111427)
(0.00755449 0.00733652 0.00111527)
(0.00755392 0.00733649 0.00111626)
(0.00755346 0.00733629 0.00111726)
(0.00755288 0.00733634 0.00111825)
(0.00755237 0.00733616 0.00111924)
(0.00755171 0.00733615 0.00112024)
(0.00755103 0.0073363 0.00112123)
(0.0075505 0.00733621 0.00112223)
(0.00754987 0.00733632 0.00112322)
(0.00754931 0.00733618 0.00112421)
(0.00754855 0.00733623 0.00112521)
(0.00754769 0.00733649 0.0011262)
(0.0075468 0.0073366 0.0011272)
(0.00754593 0.00733659 0.00112819)
(0.00754516 0.00733648 0.00112918)
(0.00754459 0.00733671 0.00113018)
(0.00754393 0.0073369 0.00113117)
(0.00754335 0.00733713 0.00113217)
(0.00754306 0.00733751 0.00113316)
(0.00754292 0.00733776 0.00113415)
(0.00754285 0.00733798 0.00113515)
(0.00754282 0.00733829 0.00113614)
(0.00754281 0.00733884 0.00113714)
(0.00754282 0.00733943 0.00113813)
(0.00754286 0.00733983 0.00113912)
(0.00754294 0.00734025 0.00114012)
(0.00754311 0.0073404 0.00114111)
(0.00754346 0.00734037 0.00114211)
(0.00754364 0.00734013 0.0011431)
(0.00754377 0.00734006 0.00114409)
(0.00754389 0.00734012 0.00114509)
(0.00754409 0.00734035 0.00114608)
(0.00754444 0.00734086 0.00114708)
(0.00754463 0.00734141 0.00114807)
(0.00754476 0.00734178 0.00114906)    )

    42
    (

(0.0075378 0.00738154 0.0011103)
(0.00753879 0.00738173 0.00111125)
(0.00753979 0.00738203 0.00111219)
(0.00754078 0.00738258 0.00111307)
(0.00754178 0.00738315 0.00111385)
(0.00754277 0.00738354 0.00111441)
(0.00754376 0.00738393 0.00111504)
(0.00754476 0.00738453 0.00111556)
(0.00754575 0.00738513 0.00111624)
(0.00754675 0.00738553 0.00111689)
(0.00754774 0.00738595 0.00111736)
(0.00754873 0.00738659 0.00111789)
(0.00754973 0.00738726 0.00111824)
(0.00755072 0.00738782 0.00111857)
(0.00755171 0.00738853 0.00111908)
(0.00755271 0.00738926 0.00111949)
(0.00755369 0.00738987 0.00112003)
(0.00755468 0.00739067 0.00112047)
(0.00755566 0.00739157 0.00112101)
(0.00755661 0.00739252 0.00112145)
(0.00755753 0.00739349 0.001122)
(0.00755838 0.00739447 0.00112244)
(0.00755907 0.00739546 0.00112298)
(0.00755947 0.00739645 0.0011234)
(0.00755976 0.00739744 0.00112391)
(0.0075601 0.00739844 0.00112428)
(0.00756065 0.00739943 0.00112467)
(0.0075612 0.00740042 0.0011253)
(0.00756153 0.00740142 0.00112597)
(0.00756178 0.00740241 0.00112652)
(0.00756211 0.0074034 0.00112723)
(0.00756265 0.00740439 0.00112795)
(0.0075632 0.00740538 0.00112855)
(0.00756353 0.00740637 0.00112933)
(0.0075638 0.00740734 0.00113019)
(0.00756414 0.00740829 0.00113105)
(0.00756474 0.0074092 0.00113186)
(0.00756539 0.00741004 0.00113251)
(0.00756591 0.0074107 0.00113333)
(0.00756657 0.00741104 0.00113423)
(0.0075672 0.00741123 0.00113518)
(0.00756762 0.00741136 0.00113614)    )

    (

(0.00747915 0.00747298 0.00111825)
(0.00747984 0.00747398 0.00111875)
(0.00748037 0.00747497 0.00111899)
(0.007481 0.00747596 0.00111911)
(0.00748157 0.00747695 0.00111917)
(0.00748235 0.00747794 0.00111919)
(0.00748324 0.00747892 0.00111919)
(0.00748418 0.00747989 0.00111915)
(0.00748514 0.00748083 0.00111907)
(0.00748612 0.00748172 0.00111889)
(0.0074871 0.00748251 0.00111855)
(0.00748808 0.00748309 0.00111835)
(0.00748905 0.00748375 0.00111821)
(0.00749 0.00748433 0.00111804)
(0.00749091 0.00748512 0.00111777)
(0.00749173 0.00748601 0.00111725)
(0.00749239 0.00748695 0.00111673)
(0.0074932 0.00748791 0.00111645)
(0.00749406 0.00748889 0.00111626)    )

    77
    (

(0.00754476 0.00734178 0.00114906)
(0.00754462 0.00734078 0.00114966)
(0.00754442 0.00733979 0.00115006)
(0.00754405 0.00733879 0.00115045)
(0.00754381 0.0073378 0.00115105)
(0.00754361 0.00733681 0.00115164)
(0.00754332 0.00733581 0.00115203)
(0.00754281 0.00733482 0.00115242)
(0.00754233 0.00733382 0.00115299)
(0.00754162 0.00733283 0.00115354)
(0.00754083 0.00733184 0.00115384)
(0.00754006 0.00733084 0.00115404)
(0.00753943 0.00732985 0.00115424)
(0.00753861 0.00732886 0.00115455)
(0.00753771 0.00732787 0.00115511)
(0.00753676 0.00732688 0.00115572)
(0.00753579 0.00732589 0.00115618)
(0.00753481 0.00732492 0.00115672)
(0.00753382 0.00732397 0.00115712)
(0.00753283 0.00732307 0.00115757)
(0.00753184 0.00732225 0.00115779)
(0.00753084 0.00732161 0.0011579)
(0.00752985 0.00732084 0.00115796)
(0.00752885 0.00732003 0.00115799)
(0.00752786 0.00731927 0.00115802)
(0.00752687 0.0073187 0.00115804)
(0.00752587 0.00731802 0.00115809)
(0.00752488 0.00731739 0.00115817)
(0.00752388 0.00731699 0.00115834)
(0.00752289 0.00731663 0.00115867)
(0.0075219 0.00731611 0.00115884)
(0.0075209 0.00731569 0.00115892)
(0.00751991 0.00731515 0.00115895)
(0.00751892 0.0073147 0.00115897)
(0.00751792 0.00731414 0.00115896)
(0.00751693 0.00731369 0.00115893)
(0.00751594 0.0073131 0.00115887)
(0.00751495 0.00731259 0.00115874)
(0.00751397 0.0073119 0.00115848)
(0.007513 0.00731118 0.00115846)
(0.00751206 0.00731058 0.00115866)
(0.00751116 0.00730977 0.0011587)
(0.00751037 0.00730888 0.00115858)
(0.00750978 0.00730793 0.00115825)
(0.0075091 0.00730696 0.00115803)
(0.00750847 0.00730598 0.00115783)
(0.00750809 0.00730499 0.00115754)
(0.00750777 0.007304 0.00115701)
(0.00750733 0.00730301 0.00115647)
(0.00750708 0.00730201 0.00115617)
(0.00750686 0.00730102 0.00115594)
(0.00750659 0.00730003 0.00115566)
(0.00750611 0.00729904 0.0011552)
(0.0075057 0.00729804 0.00115482)
(0.00750513 0.00729705 0.00115434)
(0.00750464 0.00729606 0.00115402)
(0.00750396 0.00729507 0.00115368)
(0.00750326 0.00729409 0.00115317)
(0.00750269 0.00729312 0.00115273)
(0.00750196 0.00729217 0.00115214)
(0.0075012 0.00729128 0.0011516)
(0.00750054 0.00729048 0.00115083)
(0.00750012 0.00728987 0.00114995)
(0.00749976 0.00728916 0.00114901)
(0.00749925 0.00728849 0.00114804)
(0.00749886 0.00728801 0.00114706)
(0.00749838 0.00728748 0.00114607)
(0.00749807 0.00728715 0.00114508)
(0.00749777 0.00728683 0.00114409)
(0.00749734 0.00728637 0.0011431)
(0.00749706 0.00728604 0.00114211)
(0.00749678 0.00728568 0.00114111)
(0.00749637 0.0072851 0.00114012)
(0.00749612 0.00728451 0.00113912)
(0.00749589 0.00728412 0.00113813)
(0.00749559 0.00728372 0.00113714)
(0.00749506 0.00728313 0.00113614)    )

    69
    (

(0.00754476 0.00734178 0.00114906)
(0.00754534 0.00734277 0.0011496)
(0.0075457 0.00734376 0.0011499)
(0.00754605 0.00734476 0.00115012)
(0.00754654 0.00734575 0.00115037)
(0.00754694 0.00734675 0.00115078)
(0.00754742 0.00734774 0.00115106)
(0.00754775 0.00734873 0.00115134)
(0.00754808 0.00734973 0.00115176)
(0.00754858 0.00735072 0.00115204)
(0.007549 0.00735172 0.00115233)
(0.00754956 0.00735271 0.00115275)
(0.00755003 0.0073537 0.00115302)
(0.00755066 0.0073547 0.00115329)
(0.00755125 0.00735569 0.00115368)
(0.0075516 0.00735669 0.00115389)
(0.0075519 0.00735768 0.00115403)
(0.00755229 0.00735867 0.00115416)
(0.00755296 0.00735967 0.00115435)
(0.00755376 0.00736066 0.00115471)
(0.00755459 0.00736166 0.0011549)
(0.00755536 0.00736265 0.00115503)
(0.00755596 0.00736364 0.00115515)
(0.0075567 0.00736464 0.00115535)
(0.00755744 0.00736563 0.0011557)
(0.00755806 0.00736662 0.00115588)
(0.00755886 0.00736762 0.001156)
(0.00755976 0.00736861 0.00115611)
(0.00756071 0.00736959 0.00115626)
(0.00756168 0.00737058 0.00115653)
(0.00756266 0.00737154 0.00115655)
(0.00756365 0.00737249 0.00115635)
(0.00756464 0.00737338 0.00115631)
(0.00756563 0.00737416 0.00115641)
(0.00756663 0.00737474 0.00115621)
(0.00756762 0.0073754 0.0011561)
(0.00756861 0.00737598 0.00115603)
(0.00756961 0.00737676 0.00115596)
(0.0075706 0.00737764 0.00115586)
(0.0075716 0.00737856 0.00115568)
(0.00757259 0.00737948 0.00115533)
(0.00757358 0.00738036 0.00115513)
(0.00757458 0.00738116 0.00115498)
(0.00757557 0.00738176 0.00115482)
(0.00757657 0.00738248 0.00115454)
(0.00757756 0.00738317 0.00115452)
(0.00757855 0.00738368 0.00115474)
(0.00757955 0.00738428 0.00115481)
(0.00758054 0.00738475 0.00115478)
(0.00758154 0.00738535 0.00115462)
(0.00758253 0.00738585 0.00115476)
(0.00758352 0.00738654 0.00115476)
(0.00758452 0.00738723 0.00115462)
(0.00758551 0.00738779 0.00115477)
(0.00758651 0.0073885 0.0011548)
(0.0075875 0.00738921 0.00115471)
(0.00758849 0.00738978 0.00115496)
(0.00758949 0.00739049 0.00115517)
(0.00759048 0.00739122 0.00115545)
(0.00759148 0.00739181 0.00115593)
(0.00759247 0.00739257 0.00115638)
(0.00759346 0.00739337 0.001157)
(0.00759446 0.00739414 0.00115761)
(0.00759545 0.00739473 0.00115802)
(0.00759645 0.00739547 0.00115844)
(0.00759744 0.00739622 0.00115908)
(0.00759843 0.00739686 0.00115975)
(0.00759943 0.00739721 0.0011603)
(0.00760042 0.00739744 0.00116099)    )

    (

(0.00759744 0.00741036 0.00117193)
(0.00759806 0.00740937 0.00117093)
(0.0075985 0.00740837 0.00116994)
(0.00759897 0.00740738 0.00116896)
(0.00759922 0.00740639 0.00116797)
(0.00759935 0.00740539 0.001167)
(0.00759945 0.0074044 0.00116606)
(0.00759957 0.0074034 0.00116516)
(0.00759975 0.00740241 0.00116435)
(0.00760008 0.00740142 0.00116374)
(0.00760026 0.00740042 0.001163)
(0.00760034 0.00739943 0.00116228)
(0.00760039 0.00739843 0.00116171)
(0.00760042 0.00739744 0.00116099)    )

    31
    (

(0.00757657 0.00728412 0.00117789)
(0.00757658 0.00728561 0.00117838)
(0.00757659 0.00728686 0.00117861)
(0.00757661 0.00728797 0.0011787)
(0.00757665 0.00728903 0.00117871)
(0.00757674 0.00729006 0.00117863)
(0.00757691 0.00729106 0.00117841)
(0.00757725 0.00729206 0.00117797)
(0.00757745 0.00729306 0.00117755)
(0.00757758 0.00729404 0.00117698)
(0.00757772 0.00729502 0.00117644)
(0.00757794 0.00729597 0.00117568)
(0.00757836 0.00729688 0.00117481)
(0.00757867 0.00729771 0.00117388)
(0.00757904 0.00729837 0.00117294)
(0.00757917 0.0072992 0.00117201)
(0.0075791 0.00730011 0.00117111)
(0.0075788 0.00730106 0.00117031)
(0.00757863 0.00730204 0.00116969)
(0.0075785 0.00730302 0.00116895)
(0.00757834 0.00730401 0.00116821)
(0.00757806 0.007305 0.00116761)
(0.00757755 0.00730599 0.00116683)
(0.00757703 0.00730699 0.00116598)
(0.00757673 0.00730798 0.00116515)
(0.00757653 0.00730897 0.00116441)
(0.0075763 0.00730997 0.0011639)
(0.00757593 0.00731096 0.00116334)
(0.00757574 0.00731196 0.00116296)
(0.00757564 0.00731295 0.00116258)
(0.00757557 0.00731394 0.00116199)    )

    117
    (

(0.00748512 0.00742229 0.00116199)
(0.00748611 0.00742204 0.00116195)
(0.00748711 0.00742167 0.0011619)
(0.0074881 0.00742148 0.0011618)
(0.00748909 0.00742139 0.00116161)
(0.00749009 0.00742134 0.00116123)
(0.00749108 0.00742132 0.00116097)
(0.00749208 0.00742131 0.00116069)
(0.00749307 0.0074213 0.00116026)
(0.00749406 0.00742129 0.00115997)
(0.00749506 0.00742128 0.00115966)
(0.00749605 0.00742126 0.00115917)
(0.00749705 0.00742123 0.00115878)
(0.00749804 0.00742117 0.00115827)
(0.00749903 0.00742104 0.00115789)
(0.00750002 0.00742078 0.00115745)
(0.00750101 0.00742076 0.00115674)
(0.00750199 0.00742047 0.00115588)
(0.00750296 0.00742025 0.00115496)
(0.00750391 0.00742002 0.001154)
(0.0075048 0.00741965 0.00115302)
(0.0075056 0.00741944 0.00115204)
(0.00750619 0.0074193 0.00115105)
(0.00750689 0.00741917 0.00115006)
(0.00750754 0.00741896 0.00114906)
(0.00750797 0.00741858 0.00114807)
(0.00750838 0.00741833 0.00114708)
(0.007509 0.00741809 0.00114608)
(0.00750964 0.00741773 0.00114509)
(0.00751011 0.00741757 0.0011441)
(0.00751065 0.00741755 0.0011431)
(0.00751103 0.00741764 0.00114211)
(0.00751145 0.00741788 0.00114112)
(0.00751212 0.00741841 0.00114014)
(0.00751287 0.00741898 0.00113917)
(0.00751358 0.00741939 0.00113822)
(0.0075141 0.00741985 0.00113732)
(0.00751469 0.00742057 0.0011365)
(0.00751517 0.00742143 0.00113587)
(0.00751576 0.00742236 0.0011351)
(0.00751627 0.00742332 0.0011343)
(0.00751695 0.00742429 0.00113357)
(0.00751763 0.00742528 0.00113305)
(0.00751817 0.00742627 0.00113248)
(0.00751884 0.00742726 0.00113206)
(0.00751947 0.00742826 0.00113158)
(0.00751989 0.00742925 0.00113132)
(0.00752029 0.00743024 0.00113112)
(0.00752088 0.00743124 0.0011309)
(0.00752145 0.00743223 0.00113053)
(0.00752181 0.00743322 0.00113035)
(0.00752212 0.00743422 0.00113025)
(0.00752254 0.00743521 0.0011302)
(0.00752278 0.0074362 0.00113015)
(0.00752297 0.0074372 0.00113009)
(0.0075232 0.00743819 0.00112999)
(0.00752358 0.00743918 0.00112979)
(0.00752382 0.00744017 0.00112989)
(0.00752402 0.00744115 0.00112985)
(0.00752428 0.00744212 0.00112964)
(0.00752475 0.00744305 0.00112966)
(0.00752514 0.00744394 0.00112992)
(0.00752567 0.00744472 0.00113055)
(0.0075261 0.00744528 0.00113136)
(0.00752664 0.0074459 0.00113226)
(0.00752706 0.00744639 0.00113321)
(0.00752759 0.00744701 0.00113418)
(0.00752797 0.00744757 0.00113516)
(0.00752841 0.00744834 0.00113615)
(0.00752863 0.00744921 0.00113714)
(0.00752873 0.00745013 0.00113813)
(0.00752878 0.00745105 0.00113912)
(0.00752878 0.00745194 0.00114012)
(0.00752875 0.00745274 0.00114111)
(0.00752867 0.00745337 0.00114211)
(0.0075285 0.00745412 0.0011431)
(0.00752814 0.00745489 0.00114409)
(0.00752793 0.00745555 0.00114509)
(0.00752776 0.00745595 0.00114608)
(0.00752753 0.00745629 0.00114708)
(0.00752714 0.00745672 0.00114807)
(0.00752688 0.00745698 0.00114906)
(0.00752662 0.00745719 0.00115006)
(0.00752624 0.00745745 0.00115105)
(0.00752605 0.00745789 0.00115205)
(0.00752595 0.00745824 0.00115304)
(0.00752588 0.00745817 0.00115403)
(0.00752581 0.00745815 0.00115503)
(0.00752572 0.00745816 0.00115602)
(0.00752555 0.00745822 0.00115702)
(0.00752522 0.00745836 0.00115801)
(0.00752505 0.00745814 0.001159)
(0.00752498 0.00745796 0.00116)
(0.00752496 0.00745772 0.00116099)
(0.00752498 0.0074573 0.00116199)
(0.00752504 0.00745699 0.00116298)
(0.00752519 0.00745664 0.00116397)
(0.007525 0.00745608 0.00116497)
(0.00752487 0.0074555 0.00116596)
(0.00752473 0.00745513 0.00116696)
(0.00752452 0.00745479 0.00116795)
(0.00752414 0.00745429 0.00116894)
(0.00752387 0.00745389 0.00116994)
(0.00752361 0.00745338 0.00117093)
(0.0075232 0.00745301 0.00117193)
(0.00752296 0.0074526 0.00117292)
(0.00752274 0.00745194 0.00117391)
(0.00752245 0.00745119 0.00117491)
(0.00752244 0.00745047 0.0011759)
(0.00752221 0.00744993 0.0011769)
(0.00752213 0.00744929 0.00117789)
(0.00752218 0.00744874 0.00117888)
(0.00752236 0.00744798 0.00117988)
(0.00752277 0.00744716 0.00118087)
(0.00752312 0.00744634 0.00118187)
(0.00752358 0.00744563 0.00118286)
(0.00752388 0.00744515 0.00118385)    )

    88
    (

(0.00759744 0.00741036 0.00117193)
(0.00759744 0.00741071 0.00117292)
(0.00759744 0.00741124 0.00117391)
(0.00759745 0.00741171 0.00117491)
(0.00759745 0.00741236 0.0011759)
(0.00759746 0.00741301 0.0011769)
(0.00759748 0.00741349 0.00117789)
(0.00759752 0.00741404 0.00117888)
(0.00759761 0.00741445 0.00117988)
(0.00759777 0.00741491 0.00118087)
(0.00759811 0.00741516 0.00118187)
(0.00759827 0.00741533 0.00118286)
(0.00759836 0.0074155 0.00118385)
(0.0075984 0.00741574 0.00118485)
(0.00759843 0.00741619 0.00118584)
(0.00759847 0.00741658 0.00118684)
(0.00759851 0.00741709 0.00118783)
(0.0075986 0.00741749 0.00118882)
(0.00759877 0.00741798 0.00118982)
(0.00759911 0.0074183 0.00119081)
(0.00759928 0.0074186 0.00119181)
(0.00759939 0.00741906 0.0011928)
(0.00759947 0.00741939 0.00119379)
(0.00759958 0.00741976 0.00119479)
(0.00759976 0.00742036 0.00119578)
(0.00760011 0.007421 0.00119678)
(0.0076003 0.00742148 0.00119777)
(0.00760042 0.00742205 0.00119876)
(0.00760055 0.00742251 0.00119976)
(0.00760074 0.00742308 0.00120075)
(0.00760109 0.00742354 0.00120175)
(0.00760127 0.00742413 0.00120274)
(0.00760138 0.00742465 0.00120373)
(0.00760147 0.00742535 0.00120473)
(0.00760159 0.00742609 0.00120572)
(0.00760179 0.00742674 0.00120672)
(0.00760219 0.00742713 0.00120771)
(0.00760247 0.00742745 0.0012087)
(0.00760278 0.00742787 0.0012097)
(0.00760327 0.00742809 0.00121069)
(0.0076037 0.00742824 0.00121169)
(0.00760427 0.00742837 0.00121268)
(0.00760478 0.00742856 0.00121367)
(0.00760549 0.0074289 0.00121467)
(0.00760624 0.00742907 0.00121566)
(0.00760691 0.00742916 0.00121666)
(0.00760736 0.0074292 0.00121765)
(0.0076078 0.00742922 0.00121864)
(0.00760844 0.00742923 0.00121964)
(0.00760911 0.00742922 0.00122063)
(0.00760965 0.0074292 0.00122163)
(0.00761034 0.00742916 0.00122262)
(0.00761101 0.00742908 0.00122361)
(0.00761151 0.00742892 0.00122461)
(0.00761209 0.00742908 0.0012256)
(0.00761254 0.00742917 0.0012266)
(0.00761308 0.00742921 0.00122759)
(0.0076135 0.00742923 0.00122858)
(0.00761398 0.00742924 0.00122958)
(0.00761429 0.00742924 0.00123057)
(0.00761458 0.00742925 0.00123157)
(0.00761498 0.00742926 0.00123256)
(0.00761521 0.00742927 0.00123355)
(0.00761537 0.00742929 0.00123455)
(0.00761555 0.00742934 0.00123554)
(0.00761585 0.00742943 0.00123654)
(0.0076164 0.00742961 0.00123753)
(0.00761698 0.00742997 0.00123852)
(0.0076174 0.00743019 0.00123952)
(0.00761785 0.00743038 0.00124051)
(0.00761858 0.00743064 0.00124151)
(0.00761944 0.0074311 0.0012425)
(0.00762035 0.0074315 0.00124349)
(0.0076213 0.00743203 0.00124449)
(0.00762224 0.00743246 0.00124548)
(0.00762317 0.007433 0.00124648)
(0.00762403 0.00743343 0.00124747)
(0.00762477 0.00743396 0.00124846)
(0.00762525 0.00743435 0.00124946)
(0.00762572 0.00743482 0.00125045)
(0.00762642 0.00743509 0.00125145)
(0.0076272 0.00743531 0.00125244)
(0.00762794 0.00743557 0.00125343)
(0.00762852 0.007436 0.00125443)
(0.00762924 0.00743634 0.00125542)
(0.00762995 0.00743674 0.00125642)
(0.00763053 0.00743741 0.00125741)
(0.00763124 0.00743819 0.0012584)    )

    45
    (

(0.0075875 0.00747895 0.00117491)
(0.00758729 0.00747815 0.0011759)
(0.00758698 0.00747745 0.00117689)
(0.0075864 0.00747699 0.00117788)
(0.00758577 0.00747654 0.00117886)
(0.00758527 0.00747588 0.00117982)
(0.00758465 0.00747518 0.00118076)
(0.00758409 0.00747458 0.00118163)
(0.00758381 0.00747378 0.0011824)
(0.00758368 0.00747289 0.00118292)
(0.00758362 0.00747194 0.00118348)
(0.0075836 0.00747097 0.00118386)
(0.00758363 0.00746999 0.00118424)
(0.00758371 0.007469 0.00118481)
(0.00758387 0.00746801 0.00118537)
(0.00758421 0.00746702 0.00118568)
(0.0075844 0.00746603 0.00118592)
(0.00758454 0.00746503 0.0011862)
(0.00758468 0.00746404 0.00118666)
(0.0075849 0.00746304 0.00118703)
(0.0075853 0.00746205 0.00118749)
(0.00758561 0.00746106 0.00118779)
(0.00758596 0.00746006 0.00118806)
(0.00758653 0.00745907 0.00118845)
(0.00758711 0.00745807 0.00118865)
(0.0075875 0.00745708 0.00118876)
(0.0075879 0.00745609 0.00118884)
(0.00758848 0.00745509 0.00118892)
(0.00758907 0.0074541 0.00118905)
(0.00758944 0.0074531 0.00118929)
(0.00758978 0.00745211 0.00118977)
(0.00759027 0.00745112 0.00119022)
(0.00759066 0.00745012 0.00119087)
(0.00759114 0.00744913 0.00119156)
(0.00759144 0.00744814 0.00119212)
(0.00759174 0.00744715 0.00119283)
(0.00759215 0.00744616 0.00119356)
(0.00759241 0.00744517 0.00119417)
(0.00759265 0.0074442 0.00119498)
(0.00759297 0.00744325 0.00119588)
(0.00759354 0.00744234 0.00119682)
(0.00759414 0.00744152 0.00119779)
(0.00759459 0.00744086 0.00119878)
(0.00759511 0.00744006 0.00119976)
(0.00759545 0.00743919 0.00120075)    )

    365
    (

(0.0075875 0.00749286 0.00105463)
(0.0075875 0.00749286 0.00105467)
(0.0075875 0.00749286 0.00105473)
(0.0075875 0.00749285 0.00105479)
(0.0075875 0.00749285 0.00105485)
(0.0075875 0.00749284 0.00105491)
(0.0075875 0.00749284 0.00105496)
(0.0075875 0.00749283 0.00105502)
(0.00758749 0.00749282 0.00105508)
(0.00758749 0.00749282 0.00105514)
(0.00758749 0.00749281 0.0010552)
(0.00758749 0.0074928 0.00105525)
(0.00758749 0.00749279 0.00105531)
(0.00758749 0.00749279 0.00105537)
(0.00758749 0.00749278 0.00105543)
(0.00758748 0.00749277 0.00105549)
(0.00758748 0.00749276 0.00105554)
(0.00758748 0.00749275 0.0010556)
(0.00758748 0.00749274 0.00105566)
(0.00758748 0.00749273 0.00105572)
(0.00758747 0.00749272 0.00105578)
(0.00758747 0.00749271 0.00105583)
(0.00758747 0.0074927 0.00105589)
(0.00758747 0.00749269 0.00105595)
(0.00758747 0.00749268 0.00105601)
(0.00758746 0.00749266 0.00105607)
(0.00758746 0.00749265 0.00105612)
(0.00758746 0.00749264 0.00105618)
(0.00758746 0.00749263 0.00105624)
(0.00758745 0.00749261 0.0010563)
(0.00758745 0.0074926 0.00105636)
(0.00758745 0.00749259 0.00105641)
(0.00758744 0.00749257 0.00105647)
(0.00758744 0.00749256 0.00105653)
(0.00758744 0.00749255 0.00105659)
(0.00758744 0.00749253 0.00105665)
(0.00758743 0.00749252 0.00105671)
(0.00758743 0.0074925 0.00105676)
(0.00758743 0.00749249 0.00105682)
(0.00758742 0.00749247 0.00105688)
(0.00758742 0.00749245 0.00105694)
(0.00758741 0.00749244 0.001057)
(0.00758741 0.00749242 0.00105705)
(0.00758741 0.0074924 0.00105711)
(0.0075874 0.00749239 0.00105717)
(0.0075874 0.00749237 0.00105723)
(0.00758739 0.00749235 0.00105729)
(0.00758739 0.00749233 0.00105734)
(0.00758739 0.00749232 0.0010574)
(0.00758738 0.0074923 0.00105746)
(0.00758738 0.00749228 0.00105752)
(0.00758737 0.00749226 0.00105758)
(0.00758737 0.00749224 0.00105763)
(0.00758736 0.00749222 0.00105769)
(0.00758736 0.0074922 0.00105775)
(0.00758735 0.00749218 0.00105781)
(0.00758735 0.00749216 0.00105787)
(0.00758734 0.00749214 0.00105792)
(0.00758734 0.00749212 0.00105798)
(0.00758733 0.0074921 0.00105804)
(0.00758733 0.00749208 0.0010581)
(0.00758732 0.00749206 0.00105816)
(0.00758732 0.00749203 0.00105821)
(0.00758731 0.00749201 0.00105827)
(0.0075873 0.00749199 0.00105833)
(0.0075873 0.00749197 0.00105839)
(0.00758729 0.00749195 0.00105844)
(0.00758729 0.00749192 0.0010585)
(0.00758728 0.0074919 0.00105856)
(0.00758727 0.00749188 0.00105862)
(0.00758727 0.00749185 0.00105867)
(0.00758726 0.00749183 0.00105873)
(0.00758725 0.0074918 0.00105879)
(0.00758725 0.00749178 0.00105885)
(0.00758724 0.00749176 0.0010589)
(0.00758723 0.00749173 0.00105896)
(0.00758723 0.00749171 0.00105902)
(0.00758722 0.00749168 0.00105908)
(0.00758721 0.00749166 0.00105913)
(0.0075872 0.00749163 0.00105919)
(0.0075872 0.0074916 0.00105925)
(0.00758719 0.00749158 0.0010593)
(0.00758718 0.00749155 0.00105936)
(0.00758717 0.00749153 0.00105942)
(0.00758717 0.0074915 0.00105948)
(0.00758716 0.00749147 0.00105953)
(0.00758715 0.00749145 0.00105959)
(0.00758714 0.00749142 0.00105965)
(0.00758713 0.00749139 0.0010597)
(0.00758713 0.00749136 0.00105976)
(0.00758712 0.00749134 0.00105982)
(0.00758711 0.00749131 0.00105987)
(0.0075871 0.00749128 0.00105993)
(0.00758709 0.00749125 0.00105999)
(0.00758708 0.00749122 0.00106004)
(0.00758707 0.00749119 0.0010601)
(0.00758707 0.00749117 0.00106016)
(0.00758706 0.00749114 0.00106021)
(0.00758705 0.00749111 0.00106027)
(0.00758704 0.00749108 0.00106032)
(0.00758703 0.00749105 0.00106038)
(0.00758702 0.00749102 0.00106044)
(0.00758701 0.00749099 0.00106049)
(0.007587 0.00749096 0.00106055)
(0.00758699 0.00749093 0.0010606)
(0.00758698 0.0074909 0.00106066)
(0.00758697 0.00749087 0.00106072)
(0.00758696 0.00749084 0.00106077)
(0.00758695 0.0074908 0.00106083)
(0.00758694 0.00749077 0.00106088)
(0.00758693 0.00749074 0.00106094)
(0.00758692 0.00749071 0.00106099)
(0.00758691 0.00749068 0.00106105)
(0.00758689 0.00749065 0.0010611)
(0.00758688 0.00749062 0.00106116)
(0.00758687 0.00749058 0.00106122)
(0.00758686 0.00749055 0.00106127)
(0.00758685 0.00749052 0.00106133)
(0.00758684 0.00749049 0.00106138)
(0.00758683 0.00749045 0.00106144)
(0.00758682 0.00749042 0.00106149)
(0.0075868 0.00749039 0.00106155)
(0.00758679 0.00749035 0.0010616)
(0.00758678 0.00749032 0.00106165)
(0.00758677 0.00749029 0.00106171)
(0.00758675 0.00749025 0.00106176)
(0.00758674 0.00749022 0.00106182)
(0.00758673 0.00749019 0.00106187)
(0.00758672 0.00749015 0.00106193)
(0.0075867 0.00749012 0.00106198)
(0.00758669 0.00749008 0.00106203)
(0.00758668 0.00749005 0.00106209)
(0.00758667 0.00749001 0.00106214)
(0.00758665 0.00748998 0.0010622)
(0.00758664 0.00748995 0.00106225)
(0.00758663 0.00748991 0.0010623)
(0.00758661 0.00748988 0.00106236)
(0.0075866 0.00748984 0.00106241)
(0.00758658 0.00748981 0.00106246)
(0.00758657 0.00748977 0.00106252)
(0.00758656 0.00748973 0.00106257)
(0.00758654 0.0074897 0.00106262)
(0.00758653 0.00748966 0.00106268)
(0.00758651 0.00748963 0.00106273)
(0.0075865 0.00748959 0.00106278)
(0.00758648 0.00748956 0.00106283)
(0.00758647 0.00748952 0.00106289)
(0.00758645 0.00748948 0.00106294)
(0.00758644 0.00748945 0.00106299)
(0.00758642 0.00748941 0.00106304)
(0.00758641 0.00748937 0.0010631)
(0.00758639 0.00748934 0.00106315)
(0.00758638 0.0074893 0.0010632)
(0.00758636 0.00748926 0.00106325)
(0.00758634 0.00748923 0.0010633)
(0.00758633 0.00748919 0.00106336)
(0.00758631 0.00748915 0.00106341)
(0.0075863 0.00748912 0.00106346)
(0.00758628 0.00748908 0.00106351)
(0.00758626 0.00748904 0.00106356)
(0.00758625 0.007489 0.00106361)
(0.00758623 0.00748897 0.00106366)
(0.00758621 0.00748893 0.00106371)
(0.0075862 0.00748889 0.00106376)
(0.00758618 0.00748885 0.00106382)
(0.00758616 0.00748881 0.00106387)
(0.00758614 0.00748878 0.00106392)
(0.00758613 0.00748874 0.00106397)
(0.00758611 0.0074887 0.00106402)
(0.00758609 0.00748866 0.00106407)
(0.00758607 0.00748862 0.00106412)
(0.00758605 0.00748859 0.00106417)
(0.00758604 0.00748855 0.00106422)
(0.00758602 0.00748851 0.00106427)
(0.007586 0.00748847 0.00106432)
(0.00758598 0.00748843 0.00106437)
(0.00758596 0.00748839 0.00106441)
(0.00758594 0.00748836 0.00106446)
(0.00758592 0.00748832 0.00106451)
(0.0075859 0.00748828 0.00106456)
(0.00758588 0.00748824 0.00106461)
(0.00758586 0.0074882 0.00106466)
(0.00758584 0.00748816 0.00106471)
(0.00758582 0.00748812 0.00106476)
(0.0075858 0.00748808 0.0010648)
(0.00758578 0.00748804 0.00106485)
(0.00758576 0.00748801 0.0010649)
(0.00758574 0.00748797 0.00106495)
(0.00758572 0.00748793 0.001065)
(0.0075857 0.00748789 0.00106504)
(0.00758568 0.00748785 0.00106509)
(0.00758566 0.00748781 0.00106514)
(0.00758564 0.00748777 0.00106519)
(0.00758562 0.00748773 0.00106523)
(0.0075856 0.00748769 0.00106528)
(0.00758558 0.00748765 0.00106533)
(0.00758555 0.00748761 0.00106537)
(0.00758553 0.00748757 0.00106542)
(0.00758551 0.00748753 0.00106547)
(0.00758549 0.00748749 0.00106551)
(0.00758547 0.00748746 0.00106556)
(0.00758544 0.00748742 0.0010656)
(0.00758542 0.00748738 0.00106565)
(0.0075854 0.00748734 0.0010657)
(0.00758537 0.0074873 0.00106574)
(0.00758535 0.00748726 0.00106579)
(0.00758533 0.00748722 0.00106583)
(0.0075853 0.00748718 0.00106588)
(0.00758528 0.00748714 0.00106592)
(0.00758526 0.0074871 0.00106597)
(0.00758523 0.00748706 0.00106601)
(0.00758521 0.00748702 0.00106606)
(0.00758519 0.00748698 0.0010661)
(0.00758516 0.00748694 0.00106614)