// -*- C++ -*-
// File generated by PyFoam - sorry for the ugliness

FoamFile
{
 version 2.0;
 format ascii;
 class dictionary;
 location "constant";
 object edgeVelocities;
}

edgeVelocities
  (

    (
      0

      (
        0.001
        0.001
        0.001
        0.001
      )
    )

    (
      100

      (
        0.001
        0.001
        0.001
        0.001
      )
    )
  );

