// -*- C++ -*-
// File generated by PyFoam - sorry for the ugliness

FoamFile
{
 version 2.0;
 format ascii;
 class dictionary;
 location "constant";
 object graphDict;
}

adjacencyList
  (

    (
      0
      1
    )

    (
      2
      3
    )

    (
      4
      5
    )

    (
      6
      7
    )
  );

edgeIndices
  (
    0
    1
    2
    3
  );

edgeType straight;

length
  (
    0.00012
    0.00012
    0.00012
    0.00012
  );

segmentDiameters
  (

    (
      4e-06
    )

    (
      4e-06
    )

    (
      4e-06
    )

    (
      4e-06
    )
  );

tubeOptions
{
  outerInnerDiameterRatio 1.25;
  useEffectiveDiameter no;
}

vertexIndices
  (
    0
    1
    2
    3
    4
    5
    6
    7
  );

vertexPositions
  (

(-1e-05 2e-05 2e-05)
(0.00011 2e-05 2e-05)
(-1e-05 6e-05 2e-05)
(0.00011 6e-05 2e-05)
(-1e-05 2e-05 6e-05)
(0.00011 2e-05 6e-05)
(-1e-05 6e-05 6e-05)
(0.00011 6e-05 6e-05)  );

