/*--------------------------------*- C++ -*----------------------------------*\
| =========                 |                                                 |
| \\      /  F ield         | OpenFOAM: The Open Source CFD Toolbox           |
|  \\    /   O peration     | Version:  dev                                   |
|   \\  /    A nd           | Web:      www.OpenFOAM.org                      |
|    \\/     M anipulation  |                                                 |
\*---------------------------------------------------------------------------*/
FoamFile
{
    version     2.0;
    format      ascii;
    class       dictionary;
    object      topoSetDict;
}

// * * * * * * * * * * * * * * * * * * * * * * * * * * * * * * * * * * * * * //

actions
(
    {
        name    RBC;
        type    cellSet;
        action  clear;
    }
    {
        name    RBC;
        type    cellSet;
        action  add;
        source  cylinderToCell;
        sourceInfo
        {
            p1              (0.0 0.0 0.0);
            p2              (1.0 0.0 0.0);
            radius          5e-6;
        }
    }
    {
        name    RBCFaces;
        type    faceSet;
        action  new;
        source  cellToFace;
        sourceInfo
        {
            set      RBC;
            option   all;
        }
    }
    {
        name    RBCPoints;
        type    pointSet;
        action  new;
        source  cellToPoint;
        sourceInfo
        {
            set      RBC;
            option   all;
        }
    }
    // {
        // name    RBCFacesSlaveCells;
        // type    cellSet;
        // action  new;
        // source  cellToCell;
        // sourceInfo
        // {
            // set      RBC;
        // }
    // }
    // {
        // name    RBCFacesSlaveCells;
        // type    cellSet;
        // action  invert;
    // }
);

