/*--------------------------------*- C++ -*----------------------------------*\
| =========                 |                                                 |
| \\      /  F ield         | OpenFOAM: The Open Source CFD Toolbox           |
|  \\    /   O peration     | Version:  1.7.1                                 |
|   \\  /    A nd           | Web:      www.OpenFOAM.com                      |
|    \\/     M anipulation  |                                                 |
\*---------------------------------------------------------------------------*/
FoamFile
{
    version     2.0;
    format      ascii;
    class       dictionary;
    object      blockMeshDict;
}
// * * * * * * * * * * * * * * * * * * * * * * * * * * * * * * * * * * * * * //

// Block mesh dict for an axisymmetric truncated cone. This domain has different
// radii on the left and on the right ends.

x_l  0; // = -L_HALF
x_r   0.0001; // =  L_HALF
y_p   1.9981e-06; // = Rp * cos(alpha/2)
y_w   2.59753e-06; // = Rw * cos(alpha/2)
y_tl  2.29925e-05; // = Rt * cos(alpha/2)
y_tr  2.29925e-05; // = Rt * cos(alpha/2)
z_p   8.72388e-08; // = Rp * sin(alpha/2)
z_w   1.1341e-07; // = Rw * sin(alpha/2)
z_tl  1.00387e-06; // = Rt * sin(alpha/2)
z_tr  1.00387e-06; // = Rt * sin(alpha/2)
mz_p  -8.72388e-08; // = -z_p
mz_w  -1.1341e-07; // = -z_w
mz_tl  -1.00387e-06; // = -z_tl
mz_tr  -1.00387e-06; // = -z_tr

nx    200; // number of grid cells in x-direction
ny_p  4; // number of grid cells in y-direction in plasma
ny_w  1; // number of grid cells in y-direction in wall
ny_t  20; // number of grid cells in y-direction in tissue
grad_y_p  1; // radial grading in plasma    
grad_y_w  1; // radial grading in wall
grad_y_t  4; // radial grading in tissue

vertices
(
    ($x_l      0   0)      // 0
    ($x_l   $y_p   $mz_p)  // 1
    ($x_l   $y_w   $mz_w)  // 2
    ($x_l   $y_tl   $mz_tl)  // 3
    ($x_r      0   0)      // 4
    ($x_r   $y_p   $mz_p)  // 5
    ($x_r   $y_w   $mz_w)  // 6
    ($x_r   $y_tr   $mz_tr)  // 7
    ($x_l      0   0)      // 8
    ($x_l   $y_p   $z_p)   // 9
    ($x_l   $y_w   $z_w)   // 10
    ($x_l   $y_tl   $z_tl)   // 11
    ($x_r      0   0)      // 12
    ($x_r   $y_p   $z_p)   // 13
    ($x_r   $y_w   $z_w)   // 14
    ($x_r   $y_tr   $z_tr)   // 15
);

blocks
(
    hex (0 4 5 1  8 12 13  9) ($nx $ny_p 1) simpleGrading (1 $grad_y_p 1)
    hex (1 5 6 2  9 13 14 10) ($nx $ny_w 1) simpleGrading (1 $grad_y_w 1)
    hex (2 6 7 3 10 14 15 11) ($nx $ny_t 1) simpleGrading (1 $grad_y_t 1)
);

edges
(
);

boundary
(
    frontWedge
    {
        type wedge;
        faces
        (
            (8 12 13 9)
            (9 13 14 10)
            (10 14 15 11)
        );
    }
    backWedge
    {
        type wedge;
        faces
        (
            (0 1 5 4)
            (1 2 6 5)
            (2 3 7 6)
        );
    }
    outerWall
    {
        type patch;
        faces
        (
            (3 11 15 7)
        );
    }
    plasma
    {
        type patch;
        faces
        (
            (0 8 9 1)
            (4 5 13 12)
        );
    }
    tissue
    {
        type patch;
        faces
        (
            (1 9 10 2)
            (2 10 11 3)
            (5 6 14 13)
            (6 7 15 14)
        );
    }
    axis
    {
        type empty;
        faces
        (
            (0 4 12 8)
        );
    }
);

mergePatchPairs
(
);

