// -*- C++ -*-
// File generated by PyFoam - sorry for the ugliness

FoamFile
{
 version 2.0;
 format ascii;
 class dictionary;
 location "constant";
 object graphDict;
}

adjacencyList
  71
  (

    (
      1
      2
    )

    (
      0
      13
    )

    (
      13
      14
    )

    (
      15
      16
    )

    (
      4
      5
    )

    (
      4
      16
    )

    (
      5
      10
    )

    (
      10
      11
    )

    (
      11
      15
    )

    (
      2
      3
    )

    (
      3
      4
    )

    (
      3
      19
    )

    (
      5
      6
    )

    (
      6
      7
    )

    (
      7
      17
    )

    (
      17
      19
    )

    (
      1
      18
    )

    (
      18
      19
    )

    (
      20
      22
    )

    (
      20
      21
    )

    (
      21
      25
    )

    (
      22
      23
    )

    (
      23
      24
    )

    (
      24
      25
    )

    (
      0
      20
    )

    (
      8
      21
    )

    (
      8
      12
    )

    (
      12
      13
    )

    (
      8
      9
    )

    (
      9
      10
    )

    (
      11
      25
    )

    (
      9
      27
    )

    (
      12
      26
    )

    (
      26
      27
    )

    (
      6
      28
    )

    (
      27
      28
    )

    (
      18
      30
    )

    (
      31
      32
    )

    (
      31
      34
    )

    (
      32
      33
    )

    (
      33
      35
    )

    (
      34
      35
    )

    (
      14
      35
    )

    (
      26
      33
    )

    (
      36
      40
    )

    (
      36
      37
    )

    (
      37
      38
    )

    (
      38
      39
    )

    (
      39
      40
    )

    (
      7
      29
    )

    (
      28
      37
    )

    (
      29
      36
    )

    (
      32
      38
    )

    (
      17
      41
    )

    (
      30
      44
    )

    (
      41
      44
    )

    (
      29
      42
    )

    (
      41
      42
    )

    (
      43
      44
    )

    (
      45
      46
    )

    (
      46
      48
    )

    (
      47
      48
    )

    (
      43
      46
    )

    (
      42
      48
    )

    (
      40
      47
    )

    (
      34
      49
    )

    (
      0
      50
    )

    (
      22
      51
    )

    (
      45
      52
    )

    (
      43
      53
    )

    (
      1
      54
    )
  );

edgeIndices
  71
  (
    0
    1
    2
    3
    4
    5
    6
    7
    8
    9
    10
    11
    12
    13
    14
    15
    16
    17
    18
    19
    20
    21
    22
    23
    24
    25
    26
    27
    28
    29
    30
    31
    32
    33
    34
    35
    36
    37
    38
    39
    40
    41
    42
    43
    44
    45
    46
    47
    48
    49
    50
    51
    52
    53
    54
    55
    56
    57
    58
    59
    60
    61
    62
    63
    64
    65
    66
    67
    68
    69
    70
  );

edgeType straight;

segmentDiameters
  71
  (

    (
      6.71786771594e-06
    )

    (
      6.6246746209e-06
    )

    (
      6.08353704113e-06
    )

    (
      4e-06
    )

    (
      4e-06
    )

    (
      4e-06
    )

    (
      4e-06
    )

    (
      4e-06
    )

    (
      4e-06
    )

    (
      5.53324743017e-06
    )

    (
      4.68525501636e-06
    )

    (
      5.22799190087e-06
    )

    (
      4e-06
    )

    (
      4e-06
    )

    (
      4e-06
    )

    (
      4.97388666858e-06
    )

    (
      6.65790142515e-06
    )

    (
      5.75908795607e-06
    )

    (
      6.9288412152e-06
    )

    (
      5.9095305317e-06
    )

    (
      4.946572215e-06
    )

    (
      6.96244895328e-06
    )

    (
      5.96435138232e-06
    )

    (
      4.97030786577e-06
    )

    (
      6.86576159195e-06
    )

    (
      4.91723731866e-06
    )

    (
      4.82067673602e-06
    )

    (
      5.58099120104e-06
    )

    (
      4e-06
    )

    (
      4e-06
    )

    (
      4e-06
    )

    (
      4e-06
    )

    (
      4.80183033753e-06
    )

    (
      4e-06
    )

    (
      4e-06
    )

    (
      4e-06
    )

    (
      6.20043791438e-06
    )

    (
      5.14105878235e-06
    )

    (
      6.55979214512e-06
    )

    (
      4.87630993323e-06
    )

    (
      5.56895607063e-06
    )

    (
      6.54607287473e-06
    )

    (
      6.06618866216e-06
    )

    (
      4.81177408535e-06
    )

    (
      4e-06
    )

    (
      4e-06
    )

    (
      4e-06
    )

    (
      4e-06
    )

    (
      4e-06
    )

    (
      4e-06
    )

    (
      4e-06
    )

    (
      4e-06
    )

    (
      4e-06
    )

    (
      4.94680932694e-06
    )

    (
      6.20755034954e-06
    )

    (
      5.73831505227e-06
    )

    (
      4.5705661084e-06
    )

    (
      5.11073397561e-06
    )

    (
      6.71800574512e-06
    )

    (
      6.98442721019e-06
    )

    (
      6.04091271336e-06
    )

    (
      5.0760527094e-06
    )

    (
      6.93583641717e-06
    )

    (
      5.19956637669e-06
    )

    (
      4e-06
    )

    (
      8e-06
    )

    (
      8e-06
    )

    (
      8e-06
    )

    (
      8e-06
    )

    (
      8e-06
    )

    (
      8e-06
    )
  );

tubeOptions
{
  useEffectiveDiameter no;
  outerInnerDiameterRatio 1.25;
}

vertexIndices
  55
  (
    0
    1
    2
    3
    4
    5
    6
    7
    8
    9
    10
    11
    12
    13
    14
    15
    16
    17
    18
    19
    20
    21
    22
    23
    24
    25
    26
    27
    28
    29
    30
    31
    32
    33
    34
    35
    36
    37
    38
    39
    40
    41
    42
    43
    44
    45
    46
    47
    48
    49
    50
    51
    52
    53
    54
  );

vertexPositions
  55
  (

(3.40558e-05 0.000142683 0)
(0.000273464 0.000187675 0)
(0.000234838 0.000217535 0)
(0.000211622 0.000194384 0)
(0.000193857 0.000194524 0)
(0.000165522 0.000169109 0)
(0.000171394 0.000144648 0)
(0.000174205 0.000142432 0)
(9.19034e-05 0.000162392 0)
(0.000114256 0.00015676 0)
(0.000139648 0.000177958 0)
(0.000126055 0.000208324 0)
(7.34273e-05 0.000122594 0)
(4.23587e-05 0.000129253 0)
(3.48935e-05 9.8786e-05 0)
(0.000139982 0.000234445 0)
(0.000172581 0.000233346 0)
(0.000216444 0.000136812 0)
(0.000247939 0.000159481 0)
(0.000230953 0.000160995 0)
(5.53566e-05 0.000177458 0)
(7.86172e-05 0.000175631 0)
(4.81118e-05 0.000193967 0)
(5.33587e-05 0.000214731 0)
(8.68614e-05 0.000222954 0)
(0.000102281 0.000208578 0)
(8.4727e-05 0.00011314 0)
(0.000118965 0.000115435 0)
(0.000128549 0.000108343 0)
(0.000185132 9.69361e-05 0)
(0.000259746 0.000146017 0)
(6.20838e-05 3.57798e-06 0)
(0.000105621 5.49887e-05 0)
(7.56858e-05 8.01305e-05 0)
(4.08634e-05 6.31771e-05 0)
(4.53392e-05 7.36472e-05 0)
(0.000177154 8.57427e-05 0)
(0.000134712 8.98826e-05 0)
(0.000121367 5.85809e-05 0)
(0.000157365 1.86966e-05 0)
(0.000192398 5.0334e-05 0)
(0.000224264 0.000112826 0)
(0.00021863 0.00010517 0)
(0.000269928 9.82225e-05 0)
(0.000255558 0.000110068 0)
(0.000261129 5.23248e-05 0)
(0.000255089 6.38482e-05 0)
(0.000202328 4.96847e-05 0)
(0.000225611 6.65522e-05 0)
(0 4.16667e-05 0)
(0 0.000125 0)
(0 0.000208333 0)
(0.0003 4.16667e-05 0)
(0.0003 0.000125 0)
(0.0003 0.000208333 0)  );

