/*--------------------------------*- C++ -*----------------------------------*\
| =========                 |                                                 |
| \\      /  F ield         | OpenFOAM: The Open Source CFD Toolbox           |
|  \\    /   O peration     | Version:  2.1.1                                 |
|   \\  /    A nd           | Web:      www.OpenFOAM.org                      |
|    \\/     M anipulation  |                                                 |
\*---------------------------------------------------------------------------*/
FoamFile
{
    version     2.0;
    format      ascii;
    class       dictionary;
    location    "system/RBC";
    object      fvSolution;
}
// * * * * * * * * * * * * * * * * * * * * * * * * * * * * * * * * * * * * * //

solvers
{
    Hb
    {
        solver          PCG;
        preconditioner  DIC;
        // preconditioner  none;
        tolerance       1e-08;
        relTol          0;
    }
    // Hb
    // {
        // solver          GAMG;
        // tolerance       1e-08;
        // relTol          0;
        // smoother            GaussSeidel;
        // cacheAgglomeration  true;
        // nCellsInCoarsestLevel   10;
        // agglomerator    faceAreaPair;
        // mergeLevels     1;
// 
    // }
}


// ************************************************************************* //
