// -*- C++ -*-
// File generated by PyFoam - sorry for the ugliness

FoamFile
{
 version 2.0;
 format ascii;
 class dictionary;
 location "constant";
 object edgeVelocities;
}

edgeVelocities
  2629
  (

    (
      5.013870171

      (
        0.00107187870181
        0.000566553938227
        0.00053783602714
        0.000539875025849
        0.00053783602714
        0.00110769572007
        0.000398912924457
        -0.000398640149312
        0.000554895724459
        0.000397134566147
        -0.000397134566147
        0.000552799995611
      )
    )

    (
      5.01534509928

      (
        0.00110769572007
        0.000502213996913
        0.000575497056076
        0.000502213996913
        0.000575497056076
        0.00110769572007
        0.00037108524125
        -0.000370831494569
        0.000516186869752
        0.000424943220891
        -0.000424943220891
        0.000591508850317
      )
    )

    (
      5.02004510129

      (
        0.00110769572007
        0.000502213996913
        0.000575497056076
        0.000502213996913
        0.000575497056076
        0.00114862979807
        0.00037108524125
        -0.000370831494569
        0.000516186869752
        0.000424943220891
        -0.000424943220891
        0.000591508850317
      )
    )

    (
      5.02310487847

      (
        0.00107187870181
        0.000501199342094
        0.00060500109211
        0.000501199342094
        0.000576511710895
        0.00114862979807
        0.00037033551418
        -0.00037008228016
        0.000515143984651
        0.000425983721353
        -0.0004256924353
        0.000592551735418
      )
    )

    (
      5.02425430191

      (
        0.00107187870181
        0.000457884777467
        0.000650456125215
        0.000457884777467
        0.000650456125215
        0.00110769572007
        0.000338330441117
        -0.000338099092044
        0.000470624298487
        0.000457988794416
        -0.000457675623415
        0.000637071421582
      )
    )

    (
      5.02615542429

      (
        0.00107187870181
        0.000453943522621
        0.000654592144381
        0.000453943522621
        0.000654592144381
        0.00110769572007
        0.000335188895527
        -0.000335188895527
        0.000438105971682
        0.000460900982277
        -0.000460585819933
        0.000641122332178
      )
    )

    (
      5.02617961458

      (
        0.00107187870181
        0.000481163382515
        0.000649804734377
        0.000458505494439
        0.000649804734377
        0.00110769572007
        0.000338789088046
        -0.000338557425352
        0.000442508781715
        0.000457530147487
        -0.000457530147487
        0.000457217290107
      )
    )

    (
      5.02942741626

      (
        0.00107187870181
        0.000481163382515
        0.000649804734377
        0.000458505494439
        0.000649804734377
        0.00114862979807
        0.000338789088046
        -0.000338557425352
        0.000442508781715
        0.000457530147487
        -0.000457530147487
        0.000457217290107
      )
    )

    (
      5.0298048201

      (
        0.00110769572007
        0.000526038033687
        0.000576444045786
        0.000501267007204
        0.000604930083205
        0.00114862979807
        0.000370385511838
        -0.000370132243629
        0.000483778396032
        0.000425933723696
        -0.000425933723696
        0.00042564247183
      )
    )

    (
      5.03316944997

      (
        0.00110769572007
        0.000522667719564
        0.000579655652487
        0.000498055400503
        0.000608300397329
        0.00114862979807
        0.000368012460002
        -0.000367760814477
        0.000480678838478
        0.000428013900983
        -0.000428306775532
        0.000595783149474
      )
    )

    (
      5.03531398617

      (
        0.00110769572007
        0.000561672157902
        0.0005424879254
        0.000561672157902
        0.000569295958991
        0.00110769572007
        0.000395475643142
        -0.000395205218396
        0.000516549827664
        0.000400569497063
        -0.000400843592392
        0.000557581321531
      )
    )

    (
      5.0365357357

      (
        0.00110769572007
        0.000562742002712
        0.00054146845937
        0.000562742002712
        0.00054146845937
        0.00110769572007
        0.000396228925209
        -0.000395957985372
        0.000517533725733
        0.000399816730087
        -0.000399816730087
        0.000556533491359
      )
    )

    (
      5.0384161951

      (
        0.00110769572007
        0.000548695449374
        0.000554853563302
        0.000548695449374
        0.000554853563302
        0.00110769572007
        0.000386074513134
        -0.000386074513134
        0.000478290011848
        0.000409700202325
        -0.000409700202325
        0.000570291002982
      )
    )

    (
      5.03943224302

      (
        0.00110769572007
        0.000562742002712
        0.00054146845937
        0.000562742002711
        0.00054146845937
        0.00110769572007
        0.000395957985372
        -0.000396228925209
        0.000517533725733
        0.000399816730087
        -0.000399816730087
        0.000556533491359
      )
    )

    (
      5.04043852861

      (
        0.00110769572007
        0.000517011142012
        0.000585045862925
        0.000517011142012
        0.00061395697488
        0.00107187870181
        0.00036378071873
        -0.000364029640818
        0.000475476686087
        0.000431993996729
        -0.000431993996729
        0.0006013233293
      )
    )

    (
      5.04432745519

      (
        0.00114862979807
        0.000568909888228
        0.000513332159042
        0.000568909888228
        0.000562058228664
        0.00107187870181
        0.000400297848953
        -0.000400571758403
        0.000523206109803
        0.000395476866506
        -0.000395476866506
        0.000550492524963
      )
    )

    (
      5.05051024843

      (
        0.00110769572007
        0.000561672157902
        0.0005424879254
        0.000561672157902
        0.000569295958991
        0.00107187870181
        0.000395205218396
        -0.000395475643142
        0.000516549827664
        0.000400843592392
        -0.000400569497063
        0.000557581321531
      )
    )

    (
      5.05103858347

      (
        0.00110769572007
        0.000560616640059
        0.000543493739118
        0.000534217313872
        0.000570351476834
        0.00107187870181
        0.000394462532198
        -0.000394462532198
        0.000515579105593
        0.000401586786784
        -0.000401312183262
        0.000558615119549
      )
    )

    (
      5.05445472398

      (
        0.00110769572007
        0.000605735089972
        0.000500499908046
        0.000605735089972
        0.000525233026921
        0.00104011099296
        0.000426208892777
        -0.000426208892777
        0.000557072932907
        0.00036981870331
        -0.000369565822683
        0.000514425090565
      )
    )

    (
      5.05854154887

      (
        0.00114862979807
        0.000534217313872
        0.000543493739118
        0.000560616640059
        0.000570351476834
        0.00104011099296
        0.000394462532198
        -0.000394462532198
        0.000515579105593
        0.000401586786784
        -0.000401312183262
        0.000558615119549
      )
    )

    (
      5.05977624001

      (
        0.00110769572007
        0.000534217313872
        0.000543493739118
        0.000560616640059
        0.000570351476834
        0.00107187870181
        0.000394462532198
        -0.000394462532198
        0.000515579105593
        0.000401586786784
        -0.000401312183262
        0.000558615119549
      )
    )

    (
      5.06204006814

      (
        0.00110769572007
        0.000538855526495
        0.000538855526495
        0.000565484058446
        0.000565484058446
        0.00107187870181
        0.00039788735773
        -0.00039788735773
        0.00052005549648
        0.00039788735773
        -0.00039788735773
        0.00052005549648
      )
    )

    (
      5.06572618695

      (
        0.00110769572007
        0.000543493739118
        0.000534217313872
        0.000570351476834
        0.000560616640059
        0.00107187870181
        0.000401312183262
        -0.000401586786784
        0.000558615119549
        0.000394462532198
        -0.000394462532198
        0.000515579105593
      )
    )

    (
      5.06831088459

      (
        0.00110769572007
        0.000571425323234
        0.000533194034685
        0.000571425323234
        0.000559542793659
        0.00107187870181
        0.000402342886387
        -0.000402342886387
        0.000559666868969
        0.000393706949613
        -0.000393706949613
        0.000514591527403
      )
    )

    (
      5.06948425952

      (
        0.00110769572007
        0.000566558001969
        0.00053783215476
        0.000566558001968
        0.000564410114924
        0.00107187870181
        0.000398915785754
        -0.000398915785754
        0.000554899704579
        0.000397131706807
        -0.000397403449779
        0.000552796015491
      )
    )

    (
      5.07261812

      (
        0.00107187870181
        0.000566558001968
        0.00053783215476
        0.000566558001968
        0.000564410114924
        0.00110769572007
        0.000398915785754
        -0.000398915785754
        0.000554899704579
        0.000397131706807
        -0.000397403449779
        0.000552796015491
      )
    )

    (
      5.07629110576

      (
        0.00107187870181
        0.000566558001968
        0.00053783215476
        0.000566558001968
        0.000564410114924
        0.00110769572007
        0.000398915785754
        -0.000398915785754
        0.000554899704579
        0.000397131706807
        -0.000397403449779
        0.000552796015491
      )
    )

    (
      5.07697937661

      (
        0.00107187870181
        0.000565484058446
        0.000538855526495
        0.000538855526495
        0.000565484058446
        0.00110769572007
        0.000398159617767
        -0.00039788735773
        0.000553847860035
        0.00039788735773
        -0.000398159617767
        0.000553847860035
      )
    )

    (
      5.07774266244

      (
        0.00107187870181
        0.000562095848886
        0.00054208418594
        0.000535626867049
        0.000568872268007
        0.00114862979807
        0.000395773965681
        -0.000395773965681
        0.000395503336944
        0.000400271378515
        -0.000400545269852
        0.000557166349011
      )
    )

    (
      5.07960203628

      (
        0.00104011099296
        0.000565484058446
        0.000538855526495
        0.000538855526495
        0.000565484058446
        0.00114862979807
        0.00039788735773
        -0.000398159617767
        0.000553847860035
        0.00039788735773
        -0.000398159617767
        0.000553847860035
      )
    )

    (
      5.08078477974

      (
        0.00104011099296
        0.000566553938227
        0.00053783602714
        0.000539875025849
        0.00053783602714
        0.00114862979807
        0.000398640149312
        -0.000398912924457
        0.000554895724459
        0.000397134566147
        -0.000397134566147
        0.000552799995611
      )
    )

    (
      5.08206770749

      (
        0.00104011099296
        0.000565484058446
        0.000565484058446
        0.000538855526495
        0.000538855526495
        0.00114862979807
        0.00039788735773
        -0.000398159617767
        0.000553847860035
        0.000398159617767
        -0.00039788735773
        0.000553847860035
      )
    )

    (
      5.08325850724

      (
        0.00107187870181
        0.00060500109211
        0.000501199342094
        0.000576511710895
        0.000501199342094
        0.00114862979807
        0.0004256924353
        -0.000425983721353
        0.000592551735418
        0.00037033551418
        -0.00037008228016
        0.000515143984651
      )
    )

    (
      5.08723060703

      (
        0.00107187870181
        0.000565484058446
        0.000538855526495
        0.000538855526495
        0.000565484058446
        0.00110769572007
        0.00039788735773
        -0.000398159617767
        0.000553847860035
        0.000398159617767
        -0.00039788735773
        0.000553847860035
      )
    )

    (
      5.08801708612

      (
        0.00104011099296
        0.000558246623684
        0.000545752151892
        0.000509850990518
        0.000572721493209
        0.00110769572007
        0.000392794935138
        -0.000392794935138
        0.000546759352948
        0.00040325552492
        -0.000402979780321
        0.000560936367121
      )
    )

    (
      5.09095502822

      (
        0.00104011099296
        0.000558246623684
        0.000545752151892
        0.000509850990518
        0.000572721493209
        0.00114862979807
        0.000392794935138
        -0.000392794935138
        0.000546759352948
        0.00040325552492
        -0.000402979780321
        0.000560936367121
      )
    )

    (
      5.09357613654

      (
        0.00104011099296
        0.00056311378095
        0.000541114188094
        0.000514296203168
        0.000567854335942
        0.00114862979807
        0.000396219576939
        -0.000396219576939
        0.000551526356715
        0.00039955513852
        -0.00039955513852
        0.000522235356056
      )
    )

    (
      5.09653886591

      (
        0.00107187870181
        0.000607298281558
        0.000478271740343
        0.000554650251799
        0.000523669835335
        0.00114862979807
        0.000427308789688
        -0.000427308789688
        0.000594801654652
        0.000368465925771
        -0.000368465925771
        0.00048160044857
      )
    )

    (
      5.09763114876

      (
        0.00107187870181
        0.000601097474325
        0.000504919139294
        0.000548987006245
        0.000529870642568
        0.00114862979807
        0.000422945761644
        -0.000422945761644
        0.000588728443984
        0.000373084067286
        -0.000372828953815
        0.000487303109566
      )
    )

    (
      5.09936502512

      (
        0.00107187870181
        0.000596862095278
        0.000508955075183
        0.000545118801565
        0.000534106021615
        0.00114862979807
        0.00041996565327
        -0.00041996565327
        0.000584580218076
        0.000376066214842
        -0.000376066214842
        0.000523115501993
      )
    )

    (
      5.10219201014

      (
        0.00104011099296
        0.000648312309615
        0.000459927641216
        0.000617783411773
        0.000482655807278
        0.00110769572007
        0.000456167186331
        -0.000456167186331
        0.000634971720159
        0.000339839910371
        -0.000339839910371
        0.00047272399991
      )
    )

    (
      5.10767033956

      (
        0.00104011099296
        0.000452527860934
        0.000464856349215
        0.000612854703774
        0.000487828076403
        0.00110769572007
        0.000452837509506
        -0.000452527860934
        0.000629905882947
        0.000343481726028
        -0.000343481726028
        0.000477789837122
      )
    )

    (
      5.10773881739

      (
        0.00107187870181
        0.000604072125487
        0.000502084563863
        0.000575626489126
        0.000526895991405
        0.00110769572007
        0.000425329632189
        -0.000425038793399
        0.000591641884524
        0.000370989603345
        -0.000370989603345
        0.000516053835545
      )
    )

    (
      5.1101774543

      (
        0.00107187870181
        0.000608300397329
        0.000498055400503
        0.000579655652487
        0.000522667719564
        0.00110769572007
        0.000428306775532
        -0.000428013900983
        0.000595783149474
        0.000367760814477
        -0.000368012460002
        0.000480678838478
      )
    )

    (
      5.11193522533

      (
        0.00107187870181
        0.000609214527037
        0.000497184316981
        0.000580526736008
        0.000497184316981
        0.00110769572007
        0.000428950417965
        -0.000428657103295
        0.000596678468759
        0.000367117612164
        -0.000367117612164
        0.000479838146028
      )
    )

    (
      5.11390602559

      (
        0.00104011099296
        0.000605845018921
        0.000500395155629
        0.00057731589736
        0.000500395155629
        0.00110769572007
        0.000426577933642
        -0.000426577933642
        0.000426286241268
        0.000369488474191
        -0.000369488474191
        0.000482936962325
      )
    )

    (
      5.11619816791

      (
        0.00107187870181
        0.000644335289321
        0.000444445552611
        0.000613993668575
        0.000463717384414
        0.00110769572007
        0.000453679089052
        -0.000453679089052
        0.000453368865011
        0.000342405850448
        -0.000342405850448
        0.000447538835033
      )
    )

    (
      5.1180844086

      (
        0.00107187870181
        0.000647654846523
        0.000441413775156
        0.000617156908488
        0.000460554144502
        0.00110769572007
        0.000455704580447
        -0.000456016402734
        0.000634327785956
        0.000340070135012
        -0.000340070135012
        0.000444485956807
      )
    )

    (
      5.12292635252

      (
        0.00107187870181
        0.000647654846523
        0.000441413775156
        0.000617156908488
        0.000460554144502
        0.00114862979807
        0.000455704580447
        -0.000456016402734
        0.000634327785956
        0.000340070135012
        -0.000340070135012
        0.000444485956807
      )
    )

    (
      5.12393173052

      (
        0.00107187870181
        0.000640557030911
        0.000447896265451
        0.000585025726691
        0.000467317725386
        0.00114862979807
        0.000450710397044
        -0.000450710397044
        0.00062737602502
        0.000345064318415
        -0.000345064318415
        0.000451013564379
      )
    )

    (
      5.12558793436

      (
        0.00110769572007
        0.000573941762271
        0.000482832924377
        0.000550089067765
        0.000503769290718
        0.00114862979807
        0.000423794802229
        -0.000423794802229
        0.000589910284276
        0.00037197991323
        -0.00037197991323
        0.000486193377843
      )
    )

    (
      5.12683348147

      (
        0.00110769572007
        0.000616158661574
        0.000442370535494
        0.000616158661574
        0.000461552391416
        0.00110769572007
        0.000454967481526
        -0.000454967481526
        0.000633301765269
        0.000340807233933
        -0.000340807233933
        0.000445449376071
      )
    )

    (
      5.13587763595

      (
        0.00107187870181
        0.000612713667159
        0.000445672357892
        0.000612713667159
        0.00046499738583
        0.00110769572007
        0.00045242372043
        -0.00045242372043
        0.000629760922334
        0.00034335099503
        -0.000343585937791
        0.000477934797735
      )
    )

    (
      5.1367222573

      (
        0.00107187870181
        0.000655021022775
        0.000405123272009
        0.000687390085309
        0.000422690030214
        0.00107187870181
        0.000483663192071
        -0.000483663192071
        0.000673245376366
        0.000312111523389
        -0.000312325090101
        0.000434450343704
      )
    )

    (
      5.13697296306

      (
        0.00107187870181
        0.000655021022775
        0.000405123272009
        0.000687390085309
        0.000422690030214
        0.00107187870181
        0.000483663192071
        -0.000483663192071
        0.000673245376366
        0.000312111523389
        -0.000312325090101
        0.000434450343704
      )
    )

    (
      5.1378864877

      (
        0.00110769572007
        0.000581714172641
        0.000451207819501
        0.000636931140402
        0.000470772873431
        0.00107187870181
        0.000448159138574
        -0.000448159138574
        0.000623824745954
        0.000347615576886
        -0.000347853437748
        0.000483870974115
      )
    )

    (
      5.13820662142

      (
        0.00110769572007
        0.000581714172641
        0.000451207819501
        0.000636931140402
        0.000470772873431
        0.00110769572007
        0.000448159138574
        -0.000448159138574
        0.000623824745954
        0.000347615576886
        -0.000347853437748
        0.000483870974115
      )
    )

    (
      5.14151794716

      (
        0.00110769572007
        0.00055087240603
        0.000482049586113
        0.000603161838391
        0.000527806278501
        0.00107187870181
        0.000424398294835
        -0.000424398294835
        0.000590750328781
        0.000371376420625
        -0.000371630540179
        0.000516945391288
      )
    )

    (
      5.14228065252

      (
        0.00107187870181
        0.000545118801565
        0.000508955075183
        0.000596862095278
        0.000534106021615
        0.00107187870181
        0.00041996565327
        -0.00041996565327
        0.000584580218076
        0.000376066214842
        -0.000376066214842
        0.000523115501993
      )
    )

    (
      5.14839532399

      (
        0.00107187870181
        0.000545968596611
        0.000508068431738
        0.000597792553831
        0.000508068431738
        0.00107187870181
        0.000420620344927
        -0.000420620344927
        0.000585491530201
        0.000375411075202
        -0.000375154370532
        0.000522204189868
      )
    )

    (
      5.1495237538

      (
        0.00110769572007
        0.000481970200286
        0.000555370536077
        0.000548152929442
        0.000555370536077
        0.00107187870181
        0.000385692783855
        -0.000385692783855
        0.000536873360811
        0.000410362535951
        -0.000410081931605
        0.000570822359258
      )
    )

    (
      5.15049696572

      (
        0.00110769572007
        0.000479534278864
        0.000558010492768
        0.000545382514461
        0.000558010492768
        0.00107187870181
        0.00038374345729
        -0.000384006039164
        0.00038374345729
        0.00041231319637
        -0.000412031258169
        0.000573535766269
      )
    )

    (
      5.15202011797

      (
        0.00110769572007
        0.000482123460332
        0.000555204438814
        0.000548327234706
        0.000555204438814
        0.00107187870181
        0.000385815428976
        -0.000386079428625
        0.000385815428976
        0.000410239806908
        -0.000410239806908
        0.000409959286484
      )
    )

    (
      5.15384702043

      (
        0.00110769572007
        0.000479534278864
        0.000558010492768
        0.000545382514461
        0.000558010492768
        0.00107187870181
        0.00038374345729
        -0.000384006039164
        0.00038374345729
        0.000412031258169
        -0.00041231319637
        0.000573535766269
      )
    )

    (
      5.15557011683

      (
        0.00107187870181
        0.000478714644985
        0.000586517786023
        0.00054445033087
        0.000558898780019
        0.00107187870181
        0.000383087551858
        -0.000383349684919
        0.000383087551858
        0.000412969550614
        -0.000412969550614
        0.000574448767934
      )
    )

    (
      5.15584833314

      (
        0.00107187870181
        0.000508044760712
        0.000574699172393
        0.0005562689445
        0.000547636702556
        0.00107187870181
        0.000391671218683
        -0.000391671218683
        0.000391403395389
        0.00040464801685
        -0.00040464801685
        0.000562873350785
      )
    )

    (
      5.16208171768

      (
        0.00107187870181
        0.000507219798968
        0.00057560244044
        0.000529213617099
        0.00054849743589
        0.00107187870181
        0.00039103522399
        -0.000390767835586
        0.000390767835586
        0.000405284011544
        -0.000405284011544
        0.000563758031913
      )
    )

    (
      5.16307572419

      (
        0.00107187870181
        0.000512994060809
        0.000569280079128
        0.000535238259672
        0.000519927931333
        0.00107187870181
        0.000395486824217
        -0.000395216391826
        0.000395216391826
        0.000400832411316
        -0.000400558323633
        0.000557565768435
      )
    )

    (
      5.1637100531

      (
        0.00107187870181
        0.000512994060809
        0.000569280079128
        0.000535238259672
        0.000519927931333
        0.00110769572007
        0.000395486824217
        -0.000395216391826
        0.000395216391826
        0.000400832411316
        -0.000400558323633
        0.000557565768435
      )
    )

    (
      5.1660816136

      (
        0.00110769572007
        0.0005441088472
        0.000510008822697
        0.000567702230292
        0.000488813144942
        0.00110769572007
        0.000419474408083
        -0.000419187573073
        0.000419187573073
        0.000376844827451
        -0.000376587142387
        0.000524198567447
      )
    )

    (
      5.16675845876

      (
        0.00110769572007
        0.00054746607145
        0.000506506024123
        0.000571205028866
        0.000485455920693
        0.00110769572007
        0.000422062621199
        -0.000421774016379
        0.000421774016379
        0.000374000699081
        -0.000374000699081
        0.000488834629867
      )
    )

    (
      5.16722559855

      (
        0.00110769572007
        0.000550089067765
        0.000503769290718
        0.000573941762271
        0.000482832924377
        0.00110769572007
        0.000423794802229
        -0.000423794802229
        0.000589910284276
        0.00037197991323
        -0.00037197991323
        0.000486193377843
      )
    )

    (
      5.16842001319

      (
        0.00110769572007
        0.00051457377634
        0.00054082457893
        0.000536886474059
        0.00054082457893
        0.00107187870181
        0.000396433422431
        -0.000396433422431
        0.000551824023544
        0.000399341293028
        -0.000399341293028
        0.000521955851012
      )
    )

    (
      5.17260427369

      (
        0.00107187870181
        0.00051457377634
        0.00054082457893
        0.000536886474059
        0.00054082457893
        0.00107187870181
        0.000396433422431
        -0.000396433422431
        0.000551824023544
        0.000399341293028
        -0.000399341293028
        0.000521955851012
      )
    )

    (
      5.17286228099

      (
        0.00107187870181
        0.000513733993441
        0.000568469911253
        0.000536010276903
        0.000541700776086
        0.00107187870181
        0.000395786444245
        -0.000395786444245
        0.000550923448351
        0.000400261968831
        -0.000399988271215
        0.000522801478689
      )
    )

    (
      5.1733263516

      (
        0.00107187870181
        0.000548987006245
        0.000529870642568
        0.000601097474325
        0.000504919139294
        0.00104011099296
        0.000422945761644
        -0.000422945761644
        0.000588728443984
        0.000373084067286
        -0.000372828953815
        0.000487303109566
      )
    )

    (
      5.17378548758

      (
        0.00107187870181
        0.000548987006245
        0.000529870642568
        0.000601097474325
        0.000504919139294
        0.00107187870181
        0.000422945761644
        -0.000422945761644
        0.000588728443984
        0.000373084067286
        -0.000372828953815
        0.000487303109566
      )
    )

    (
      5.17729118025

      (
        0.00107187870181
        0.000579655652487
        0.000522667719564
        0.000608300397329
        0.000498055400503
        0.00107187870181
        0.000428306775532
        -0.000428013900983
        0.000595783149474
        0.000368012460002
        -0.000367760814477
        0.000480678838478
      )
    )

    (
      5.17869182599

      (
        0.00104011099296
        0.000579655652487
        0.000522667719564
        0.000608300397329
        0.000498055400503
        0.00110769572007
        0.000428306775532
        -0.000428013900983
        0.000595783149474
        0.000368012460002
        -0.000367760814477
        0.000480678838478
      )
    )

    (
      5.17898196801

      (
        0.00107187870181
        0.000514567651396
        0.000567557121541
        0.000563410995352
        0.00054083096946
        0.00110769572007
        0.000396699965639
        -0.000396428703706
        0.000551817455213
        0.000399619269895
        -0.000399346011753
        0.000521962018584
      )
    )

    (
      5.18451925059

      (
        0.00107187870181
        0.000525778441807
        0.000555282190214
        0.000575685926678
        0.000529134062211
        0.00110769572007
        0.000405342794543
        -0.000405065622677
        0.000563839800222
        0.000390709092783
        -0.000390709092783
        0.000484031580068
      )
    )

    (
      5.18841517364

      (
        0.00107187870181
        0.000521982623315
        0.000559438312094
        0.000571529804798
        0.000533094473137
        0.00110769572007
        0.000402141281435
        -0.000402141281435
        0.000525615553521
        0.000393633434024
        -0.000393633434024
        0.000487654412344
      )
    )

    (
      5.1913459511

      (
        0.00107187870181
        0.00046446881198
        0.000602719814881
        0.000528248302012
        0.000574337858557
        0.00110769572007
        0.000371687438352