// -*- C++ -*-
// File generated by PyFoam - sorry for the ugliness

FoamFile
{
 version 2.0;
 format ascii;
 class dictionary;
 location "constant";
 object graphDict;
}

edgeType straight;

tubeOptions
{
  useEffectiveDiameter false;
  outerInnerDiameterRatio 1.25;
}

vertexIndices
  (
    0
    1
    2
    3
    4
    5
    6
    7
    8
    9
    10
    11
  );

edgeIndices
  (
    0
    1
    2
    3
    4
    5
    6
    7
    8
    9
    10
    11
  );

adjacencyList
  (

    (
      0
      1
    )

    (
      1
      2
    )

    (
      1
      3
    )

    (
      4
      6
    )

    (
      5
      6
    )

    (
      6
      7
    )

    (
      2
      8
    )

    (
      4
      9
    )

    (
      8
      9
    )

    (
      3
      10
    )

    (
      5
      11
    )

    (
      10
      11
    )
  );

vertexPositions
  (

(0 0 0)
(4e-05 0 0)
(6e-05 2e-05 0)
(6e-05 -2e-05 0)
(9e-05 2e-05 0)
(9e-05 -2e-05 0)
(0.00011 0 0)
(0.00015 0 0)
(6.5e-05 2e-05 0)
(8.5e-05 2e-05 0)
(6.5e-05 -2e-05 0)
(8.5e-05 -2e-05 0)  );

segmentDiameters
  (

    (
      4e-06
    )

    (
      4e-06
    )

    (
      4e-06
    )

    (
      4e-06
    )

    (
      4e-06
    )

    (
      4e-06
    )

    (
      4e-06
    )

    (
      4e-06
    )

    (
      4e-06
    )

    (
      4e-06
    )

    (
      4e-06
    )

    (
      4e-06
    )
  ); 	// ************************************************************************* //

