// -*- C++ -*-
// File generated by PyFoam - sorry for the ugliness

FoamFile
{
 version 2.0;
 format ascii;
 class dictionary;
 location "constant";
 object RBCPath;
}

RBCPath1
{
  edges
    116
    (
      0
      0
      0
      0
      0
      0
      0
      0
      0
      0
      0
      0
      0
      0
      0
      2
      2
      2
      2
      2
      2
      2
      2
      2
      2
      2
      2
      2
      2
      2
      2
      2
      2
      2
      2
      2
      2
      2
      9
      9
      9
      9
      9
      11
      11
      11
      11
      11
      11
      11
      11
      11
      11
      11
      11
      11
      11
      11
      11
      11
      11
      11
      10
      10
      10
      10
      10
      4
      4
      4
      4
      4
      4
      4
      4
      4
      4
      4
      4
      4
      4
      4
      4
      4
      4
      4
      4
      4
      4
      4
      4
      4
      4
      4
      4
      4
      4
      4
      4
      4
      4
      5
      5
      5
      5
      5
      5
      5
      5
      5
      5
      5
      5
      5
      5
      5
    );
  index 1;
  sCoords
    116
    (
      6.55539612012e-06
      8.13634033099e-06
      1.33425124436e-05
      1.67318145271e-05
      1.79638570368e-05
      2.00016296233e-05
      2.00275586799e-05
      2.35088081262e-05
      2.39133392684e-05
      2.76403253702e-05
      3.0015818944e-05
      3.13691456655e-05
      3.34521224961e-05
      3.45775944319e-05
      3.56922526661e-05
      2.22044604925e-18
      3.17382660298e-06
      3.46044197856e-06
      5.31709295949e-06
      7.36254844208e-06
      8.0335953436e-06
      9.26397176342e-06
      1.12502572549e-05
      1.26310474819e-05
      1.32566839952e-05
      1.49421749332e-05
      1.6917624778e-05
      1.72877989738e-05
      1.7701564148e-05
      1.87095013051e-05
      1.93468291556e-05
      2.0036833917e-05
      2.0710212191e-05
      2.27010259929e-05
      2.31248246008e-05
      2.47282128246e-05
      2.61586883266e-05
      2.77618632244e-05
      2.22044604925e-18
      6.46881642711e-07
      1.71001519761e-06
      3.57177017632e-06
      3.59529106098e-06
      2.22044604925e-18
      8.44923339415e-07
      1.79058848065e-06
      2.89754873021e-06
      3.74171468987e-06
      5.89389076656e-06
      6.34076716924e-06
      7.08773756674e-06
      7.69331432433e-06
      1.17220272938e-05
      1.21257012257e-05
      1.22346204297e-05
      1.26315015246e-05
      1.27864049391e-05
      1.43886593537e-05
      1.47829363701e-05
      1.7981615808e-05
      1.85708865806e-05
      1.91264177051e-05
      4.5e-06
      3.75053188903e-06
      3.04007650344e-06
      2.92518163755e-06
      4.0285494584e-07
      2.22044604925e-18
      3.29805315593e-07
      1.56284586385e-06
      1.89369667233e-06
      2.12047245019e-06
      2.69717516185e-06
      4.96012608465e-06
      5.09966277492e-06
      5.35105018399e-06
      5.58287672718e-06
      7.35296805442e-06
      8.05056722787e-06
      8.19507403253e-06
      1.11898079354e-05
      1.32512735253e-05
      1.4813654793e-05
      1.50115316374e-05
      1.52856818002e-05
      2.02303783596e-05
      2.14324313994e-05
      2.23061111509e-05
      2.28521421312e-05
      2.29011540267e-05
      2.29172938729e-05
      2.32188217896e-05
      2.47628200699e-05
      2.57423134255e-05
      2.82514593716e-05
      2.82842712475e-05
      2.82842712475e-05
      2.82842712475e-05
      2.82842712475e-05
      2.82842712475e-05
      2.82842712475e-05
      2.22044604925e-18
      1.10481000509e-06
      6.88696090657e-06
      8.14142776379e-06
      1.17702048223e-05
      1.35296985279e-05
      1.99011467163e-05
      2.0159564948e-05
      2.62708634378e-05
      2.6596808216e-05
      3.01879104406e-05
      3.29039162794e-05
      3.35885572095e-05
      3.47410003542e-05
      3.67580312264e-05
    );
  times
    116
    (
      5.013870171
      5.01534509928
      5.02004510129
      5.02310487847
      5.02425430191
      5.02615542429
      5.02617961458
      5.02942741626
      5.0298048201
      5.03316944997
      5.03531398617
      5.0365357357
      5.0384161951
      5.03943224302
      5.04043852861
      5.04432745519
      5.05051024843
      5.05103858347
      5.05445472398
      5.05854154887
      5.05977624001
      5.06204006814
      5.06572618695
      5.06831088459
      5.06948425952
      5.07261812
      5.07629110576
      5.07697937661
      5.07774266244
      5.07960203628
      5.08078477974
      5.08206770749
      5.08325850724
      5.08723060703
      5.08801708612
      5.09095502822
      5.09357613654
      5.09653886591
      5.09763114876
      5.09936502512
      5.10219201014
      5.10767033956
      5.10773881739
      5.1101774543
      5.11193522533
      5.11390602559
      5.11619816791
      5.1180844086
      5.12292635252
      5.12393173052
      5.12558793436
      5.12683348147
      5.13587763595
      5.1367222573
      5.13697296306
      5.1378864877
      5.13820662142
      5.14151794716
      5.14228065252
      5.14839532399
      5.1495237538
      5.15049696572
      5.15202011797
      5.15384702043
      5.15557011683
      5.15584833314
      5.16208171768
      5.16307572419
      5.1637100531
      5.1660816136
      5.16675845876
      5.16722559855
      5.16842001319
      5.17260427369
      5.17286228099
      5.1733263516
      5.17378548758
      5.17729118025
      5.17869182599
      5.17898196801
      5.18451925059
      5.18841517364
      5.1913459511
      5.19169048149
      5.19217625638
      5.20076058508
      5.20262964046
      5.20405754425
      5.20493559917
      5.20501384464
      5.20503961123
      5.20552877938
      5.20805482129
      5.20976153803
      5.21413359565
      5.21419372216
      5.21513590793
      5.2152856539
      5.21538277522
      5.21731740939
      5.21776543495
      5.21888128903
      5.21991201201
      5.22530641988
      5.22647676392
      5.22986220022
      5.23150370471
      5.2374478924
      5.23768118592
      5.2431983134
      5.24349256819
      5.24673452549
      5.24918646765
      5.24980454437
      5.25084494122
      5.25260097339
    );
}

RBCPath2
{
  edges
    111
    (
      0
      0
      0
      0
      0
      0
      0
      0
      0
      0
      0
      0
      0
      0
      0
      0
      1
      1
      1
      1
      1
      1
      1
      1
      1
      1
      1
      1
      1
      1
      1
      1
      1
      1
      1
      1
      1
      1
      6
      6
      6
      6
      6
      6
      8
      8
      8
      8
      8
      8
      8
      8
      8
      8
      8
      8
      8
      8
      7
      7
      7
      7
      7
      3
      3
      3
      3
      3
      3
      3
      3
      3
      3
      3
      3
      3
      3
      3
      3
      3
      3
      3
      3
      3
      3
      3
      3
      3
      3
      3
      3
      5
      5
      5
      5
      5
      5
      5
      5
      5
      5
      5
      5
      5
      5
      5
      5
      5
      5
      5
      5
    );
  index 2;
  sCoords
    111
    (
      7.33836854738e-07
      1.9658793644e-06
      4.00365195094e-06
      4.02958100754e-06
      7.51083045379e-06
      7.91536159605e-06
      1.16423476978e-05
      1.40178412716e-05
      1.53711679931e-05
      1.74541448237e-05
      1.85796167596e-05
      1.96942749938e-05
      2.40020223276e-05
      3.11037628788e-05
      3.16889973328e-05
      3.54730415586e-05
      2.22044604925e-18
      6.59593381509e-07
      1.86896956883e-06
      3.85525506027e-06
      5.26002204174e-06
      5.93051819052e-06
      7.706031926e-06
      9.78699139853e-06
      1.01769367577e-05
      1.06059765506e-05
      1.16511228703e-05
      1.23199454429e-05
      1.30467932091e-05
      1.37201714832e-05
      1.61232961946e-05
      1.65680375863e-05
      1.82081338448e-05
      1.96713587106e-05
      2.13397124483e-05
      2.20030539504e-05
      2.30452826483e-05
      2.4732602849e-05
      2.22044604925e-18
      3.10093318544e-08
      1.06823387077e-06
      1.82109911489e-06
      2.66647470862e-06
      3.64425204338e-06
      2.22044604925e-18
      3.07137956735e-06
      3.70911876872e-06
      4.74818135087e-06
      5.48294240172e-06
      1.12106213983e-05
      1.17425309158e-05
      1.19113174101e-05
      1.25263436518e-05
      1.27260509878e-05
      1.47917379305e-05
      1.52423063677e-05
      1.88168223516e-05
      1.94775084455e-05
      4.5e-06
      3.91510033608e-06
      3.20977087954e-06
      2.54809145471e-06
      2.44143731866e-06
      2.22044604925e-18
      5.26041780537e-07
      8.65558879945e-07
      2.13490879824e-06
      2.51915530186e-06
      2.78598790028e-06
      3.47151234139e-06
      5.71798520754e-06
      5.856505838e-06
      6.10525245365e-06
      6.38123793082e-06
      8.48850094251e-06
      9.34051430079e-06
      9.51700781256e-06
      1.26367736993e-05
      1.48796017711e-05
      1.65546284426e-05
      1.67366260343e-05
      1.69983241507e-05
      2.15178784317e-05
      2.24296674358e-05
      2.31277268628e-05
      2.35477648812e-05
      2.35848240974e-05
      2.35970278705e-05
      2.38338329788e-05
      2.50704080523e-05
      2.59727534579e-05
      2.22044604925e-18
      6.66018853485e-08
      1.11025703209e-06
      1.27613000247e-06
      1.38371086238e-06
      3.52669686244e-06
      4.02297284809e-06
      5.25899964581e-06
      6.3638096509e-06
      1.21459605524e-05
      1.34004274096e-05
      1.70292044681e-05
      1.87886981737e-05
      2.51601463621e-05
      2.54185645938e-05
      3.15298630836e-05
      3.18558078618e-05
      3.54469100864e-05
      3.81629159252e-05
      3.88475568553e-05
    );
  times
    111
    (
      5.02310487847
      5.02425430191
      5.02615542429
      5.02617961458
      5.02942741626
      5.0298048201
      5.03316944997
      5.03531398617
      5.0365357357
      5.0384161951
      5.03943224302
      5.04043852861
      5.04432745519
      5.05051024843
      5.05103858347
      5.05445472398
      5.05854154887
      5.05977624001
      5.06204006814
      5.06572618695
      5.06831088459
      5.06948425952
      5.07261812
      5.07629110576
      5.07697937661
      5.07774266244
      5.07960203628
      5.08078477974
      5.08206770749
      5.08325850724
      5.08723060703
      5.08801708612
      5.09095502822
      5.09357613654
      5.09653886591
      5.09763114876
      5.09936502512
      5.10219201014
      5.10767033956
      5.10773881739
      5.1101774543
      5.11193522533
      5.11390602559
      5.11619816791
      5.1180844086
      5.12292635252
      5.12393173052
      5.12558793436
      5.12683348147
      5.13587763595
      5.1367222573
      5.13697296306
      5.1378864877
      5.13820662142
      5.14151794716
      5.14228065252
      5.14839532399
      5.1495237538
      5.15049696572
      5.15202011797
      5.15384702043
      5.15557011683
      5.15584833314
      5.16208171768
      5.16307572419
      5.1637100531
      5.1660816136
      5.16675845876
      5.16722559855
      5.16842001319
      5.17260427369
      5.17286228099
      5.1733263516
      5.17378548758
      5.17729118025
      5.17869182599
      5.17898196801
      5.18451925059
      5.18841517364
      5.1913459511
      5.19169048149
      5.19217625638
      5.20076058508
      5.20262964046
      5.20405754425
      5.20493559917
      5.20501384464
      5.20503961123
      5.20552877938
      5.20805482129
      5.20976153803
      5.21413359565
      5.21419372216
      5.21513590793
      5.2152856539
      5.21538277522
      5.21731740939
      5.21776543495
      5.21888128903
      5.21991201201
      5.22530641988
      5.22647676392
      5.22986220022
      5.23150370471
      5.2374478924
      5.23768118592
      5.2431983134
      5.24349256819
      5.24673452549
      5.24918646765
      5.24980454437
    );
}

RBCPath3
{
  edges
    119
    (
      0
      0
      0
      0
      0
      0
      0
      0
      0
      0
      0
      0
      0
      0
      0
      0
      2
      2
      2
      2
      2
      2
      2
      2
      2
      2
      2
      2
      2
      2
      2
      2
      2
      2
      2
      2
      2
      2
      2
      2
      2
      2
      9
      9
      9
      9
      9
      11
      11
      11
      11
      11
      11
      11
      11
      11
      11
      11
      11
      11
      11
      11
      11
      11
      11
      11
      11
      11
      10
      10
      4
      4
      4
      4
      4
      4
      4
      4
      4
      4
      4
      4
      4
      4
      4
      4
      4
      4
      4
      4
      4
      4
      4
      4
      4
      4
      4
      4
      4
      5
      5
      5
      5
      5
      5
      5
      5
      5
      5
      5
      5
      5
      5
      5
      5
      5
      5
      5
      5
    );
  index 3;
  sCoords
    119
    (
      4.17161758943e-06
      4.75685204345e-06
      8.5408962692e-06
      1.30678547106e-05
      1.44860577395e-05
      1.69936904797e-05
      2.10767885079e-05
      2.39398470145e-05
      2.52395894027e-05
      2.87109532505e-05
      3.2647948457e-05
      3.33856913252e-05
      3.42038411427e-05
      3.61968643657e-05
      3.74270488416e-05
      3.87614360922e-05
      2.22044604925e-18
      1.99081380191e-06
      2.41461240981e-06
      4.0180006336e-06
      5.44847613553e-06
      7.05165103339e-06
      7.57405905643e-06
      8.44952641326e-06
      9.88833478532e-06
      1.24079699128e-05
      1.24398022687e-05
      1.36642042169e-05
      1.45396715737e-05
      1.55195225531e-05
      1.66664994664e-05
      1.75048307509e-05
      1.96421314963e-05
      2.00859191951e-05
      2.08277267102e-05
      2.14291178646e-05
      2.54299853244e-05
      2.58064097109e-05
      2.5907976449e-05
      2.62780665413e-05
      2.64225133786e-05
      2.79166094484e-05
      2.22044604925e-18
      2.29952135635e-06
      2.72314640311e-06
      3.12251611482e-06
      3.75053188903e-06
      2.22044604925e-18
      9.88257415874e-07
      1.14807843428e-06
      4.65668447612e-06
      5.21706362986e-06
      5.57074371346e-06
      6.89304466975e-06
      7.24784592998e-06
      7.47620003734e-06
      8.0569165238e-06
      1.02409157737e-05
      1.03755841944e-05
      1.0618200995e-05
      1.08419393852e-05
      1.2550274326e-05
      1.3223535092e-05
      1.33630002257e-05
      1.62532514156e-05
      1.81390012057e-05
      1.95682077674e-05
      1.97492179281e-05
      4.5e-06
      8.46370417884e-07
      2.22044604925e-18
      8.73679751526e-07
      1.41971073183e-06
      1.46872262733e-06
      1.48486247355e-06
      1.78639039016e-06
      3.33038867049e-06
      4.30988202612e-06
      6.81902797222e-06
      6.85183984807e-06
      7.36600371788e-06
      7.45321022608e-06
      7.50985589227e-06
      8.58022334401e-06
      8.82672283872e-06
      9.45152082111e-06
      1.00971516947e-05
      1.34591618566e-05
      1.41922494728e-05
      1.61872968552e-05
      1.71050622632e-05
      2.03705641926e-05
      2.04987264366e-05
      2.35017979058e-05
      2.36515808367e-05
      2.53042351013e-05
      2.65457427846e-05
      2.68608200734e-05
      2.73904076705e-05
      2.22044604925e-18
      3.2419687736e-06
      4.11279234206e-06
      5.49925922771e-06
      6.20543388576e-06
      7.40952442788e-06
      8.44176946749e-06
      9.79275477594e-06
      1.56958677514e-05
      1.82323270022e-05
      1.88160011857e-05
      2.0025459519e-05
      2.03917174914e-05
      2.10424700247e-05
      2.18361823369e-05
      3.01630658623e-05
      3.05764988427e-05
      3.16713818303e-05
      3.3210683221e-05
      3.9054895298e-05
    );
  times
    119
    (
      5.05051024843
      5.05103858347
      5.05445472398
      5.05854154887
      5.05977624001
      5.06204006814
      5.06572618695
      5.06831088459
      5.06948425952
      5.07261812
      5.07629110576
      5.07697937661
      5.07774266244
      5.07960203628
      5.08078477974
      5.08206770749
      5.08325850724
      5.08723060703
      5.08801708612
      5.09095502822
      5.09357613654
      5.09653886591
      5.09763114876
      5.09936502512
      5.10219201014
      5.10767033956
      5.10773881739
      5.1101774543
      5.11193522533
      5.11390602559
      5.11619816791
      5.1180844086
      5.12292635252
      5.12393173052
      5.12558793436
      5.12683348147
      5.13587763595
      5.1367222573
      5.13697296306
      5.1378864877
      5.13820662142
      5.14151794716
      5.14228065252
      5.14839532399
      5.1495237538
      5.15049696572
      5.15202011797
      5.15384702043
      5.15557011683
      5.15584833314
      5.16208171768
      5.16307572419
      5.1637100531
      5.1660816136
      5.16675845876
      5.16722559855
      5.16842001319
      5.17260427369
      5.17286228099
      5.1733263516
      5.17378548758
      5.17729118025
      5.17869182599
      5.17898196801
      5.18451925059
      5.18841517364
      5.1913459511
      5.19169048149
      5.19217625638
      5.20076058508
      5.20262964046
      5.20405754425
      5.20493559917
      5.20501384464
      5.20503961123
      5.20552877938
      5.20805482129
      5.20976153803
      5.21413359565
      5.21419372216
      5.21513590793
      5.2152856539
      5.21538277522
      5.21731740939
      5.21776543495
      5.21888128903
      5.21991201201
      5.22530641988
      5.22647676392
      5.22986220022
      5.23150370471
      5.2374478924
      5.23768118592
      5.2431983134
      5.24349256819
      5.24673452549
      5.24918646765
      5.24980454437
      5.25084494122
      5.25260097339
      5.25552774174
      5.25628588293
      5.2574929445
      5.25810774194
      5.2591560262
      5.26005470134
      5.26123087256
      5.26637013761
      5.2686599896
      5.26918691606
      5.2702787848
      5.27060943334
      5.27119691646
      5.27191346009
      5.27968195433
      5.28006766307
      5.28108912472
      5.28252520269
      5.28814403771
    );
}

RBCPath29
{
  edges
    128
    (
      0
      0
      0
      0
      0
      0
      0
      0
      0
      0
      0
      0
      0
      0
      0
      0
      0
      0
      0
      0
      0
      1
      1
      1
      1
      1
      1
      1
      1
      1
      1
      1
      1
      1
      1
      1
      1
      1
      1
      1
      1
      1
      1
      1
      1
      1
      1
      1
      1
      1
      1
      1
      1
      1
      1
      6
      6
      6
      6
      6
      8
      8
      8
      8
      8
      8
      8
      8
      8
      8
      8
      8
      8
      8
      8
      8
      8
      8
      8
      8
      8
      7
      7
      7
      7
      7
      3
      3
      3
      3
      3
      3
      3
      3
      3
      3
      3
      3
      3
      3
      3
      3
      3
      3
      3
      3
      3
      3
      3
      3
      3
      5
      5
      5
      5
      5
      5
      5
      5
      5
      5
      5
      5
      5
      5
      5
      5
      5
    );
  index 29;
  sCoords
    128
    (
      2.68585507175e-06
      5.00969996885e-06
      7.56158838828e-06
      7.72441768676e-06
      1.00992003812e-05
      1.01779868373e-05
      1.02580508317e-05
      1.03128141242e-05
      1.23835346092e-05
      1.84566995674e-05
      2.2740123088e-05
      2.31345263661e-05
      2.47089530895e-05
      2.49993000297e-05
      2.56688842225e-05
      2.72331595413e-05
      3.01183300696e-05
      3.21797175085e-05
      3.6415065139e-05
      3.94283606692e-05
      3.96156434966e-05
      2.22044604925e-18
      1.76841767343e-06
      1.95901332109e-06
      4.35309756346e-06
      4.43194113473e-06
      4.68961724908e-06
      4.73620149586e-06
      5.64701264147e-06
      5.88314561893e-06
      8.42752830639e-06
      9.63448906425e-06
      1.01928048478e-05
      1.02958828442e-05
      1.04017941641e-05
      1.15335301254e-05
      1.18259308996e-05
      1.35055965648e-05
      1.38467221683e-05
      1.52033961547e-05
      1.7370572303e-05
      1.73769438638e-05
      1.8896552056e-05
      1.92983752799e-05
      2.0565626949e-05
      2.1447076519e-05
      2.19624864829e-05
      2.28416808164e-05
      2.28866059177e-05
      2.53091939968e-05
      2.53885204404e-05
      2.58930536466e-05
      2.71165003741e-05
      2.79736551535e-05
      2.80526316433e-05
      2.22044604925e-18
      3.74048460168e-07
      2.74724432127e-06
      4.04767858512e-06
      4.26750149214e-06
      2.22044604925e-18
      1.44058453245e-06
      1.84743457312e-06
      1.87282963545e-06
      2.3787555815e-06
      3.58830842129e-06
      4.47527138559e-06
      6.06211472525e-06
      7.75049685667e-06
      7.8670628736e-06
      8.00857737349e-06
      1.01062187446e-05
      1.11788524562e-05
      1.17194036595e-05
      1.26479834071e-05
      1.28869784634e-05
      1.36771618207e-05
      1.42442864963e-05
      1.70565196775e-05
      1.77876751839e-05
      1.97578034313e-05
      4.5e-06
      4.09491381885e-06
      3.66466116755e-06
      2.97426322079e-06
      1.53015116506e-06
      2.22044604925e-18
      6.20861732955e-07
      1.00840292777e-06
      1.39026628649e-06
      2.83190604091e-06
      5.5972963522e-06
      5.97994178984e-06
      6.50640735689e-06
      7.29798825618e-06
      8.43613371408e-06
      9.58248697665e-06
      1.02872627727e-05
      1.24369438516e-05
      1.33213920105e-05
      1.37614190083e-05
      1.45327807557e-05
      1.55702266531e-05
      1.71554141682e-05
      1.91584341881e-05
      1.93568056321e-05
      2.18936849175e-05
      2.29205550663e-05
      2.46757343339e-05
      2.72301810129e-05
      2.74964675123e-05
      2.22044604925e-18
      5.33378202879e-06
      6.63959127282e-06
      7.75583527504e-06
      1.00083701293e-05
      1.05245610799e-05
      1.21417718259e-05
      1.27730063784e-05
      1.86668434821e-05
      2.09128513327e-05
      2.15558864145e-05
      2.42594089393e-05
      2.62621862504e-05
      2.94049983868e-05
      2.98137559866e-05
      3.68778618742e-05
      3.84564544859e-05
    );
  times
    128
    (
      5.35720420731
      5.35937221838
      5.3617529807
      5.36190489089
      5.36404878533
      5.36411991177
      5.36419219154
      5.36424163047
      5.36611102515
      5.37159372663
      5.3755899097
      5.37594596711
      5.37736732019
      5.37762943815
      5.37823392202
      5.37964611066
      5.38225077048
      5.38411173952
      5.38793530546
      5.39065563332
      5.39083035722
      5.39118893931
      5.39440632717
      5.39475935967
      5.39916991173
      5.39931259836
      5.3997814039
      5.39986625657
      5.40164142854
      5.40210165199
      5.40680814765
      5.40929028724
      5.41043847512
      5.41064631203
      5.41086014564
      5.41313021508
      5.41371317676
      5.41708229979
      5.41776653961
      5.42047165578
      5.42515617863
      5.4251700839
      5.42830641788
      5.42911936037
      5.43155466192
      5.4332824171
      5.4343714976
      5.4362170963
      5.4363053857
      5.44106639584
      5.44121263603
      5.44214894118
      5.44439742899
      5.44597273425
      5.44612849046
      5.44659009951
      5.44759737309
      5.45403962879
      5.4575451229
      5.45813768489
      5.45875703577
      5.46171555827
      5.46262742837
      5.4626795821
      5.46372525185
      5.46621164295
      5.46807122165
      5.47114511808
      5.47441570674
      5.47465907575
      5.47495128862
      5.47933078891
      5.4815702564
      5.4826173657
      5.48428659908
      5.48471622133
      5.48622003505
      5.48730481522
      5.49269262713
      5.49410895694
      5.49825670808
      5.49876188081
      5.49985679861
      5.50101973951
      5.50275725674
      5.50612387441
      5.50969107263
      5.51082027474
      5.51157381169
      5.51226228764
      5.51487561691
      5.51994060928
      5.52055972774
      5.52141154646
      5.52278715281
      5.52487532956
      5.5269936117
      5.52828667703
      5.53246577589
      5.53418519201
      5.53503906607
      5.53642866013
      5.53830928787
      5.54120266327
      5.54485869059
      5.54521879474
      5.54928645846
      5.55093295479
      5.55374340938
      5.5581364899
      5.5585944435
      5.5599633536
      5.56493945959
      5.56615770308
      5.56716542025
      5.5691989524
      5.56966495668
      5.57112493411
      5.57169479688
      5.57719340142
      5.5792887951
      5.57988870914
      5.58241093718
      5.58421899446
      5.58705624668
      5.58742526282
      5.59380256099
      5.59522767493
    );
}

RBCPath28
{
  edges
    131
    (
      0
      0
      0
      0
      0
      0
      0
      0
      0
      0
      0
      0
      0
      0
      0
      0
      0
      0
      0
      1
      1
      1
      1
      1
      1
      1
      1
      1
      1
      1
      1
      1
      1
      1
      1
      1
      1
      1
      1
      1
      1
      1
      1
      1
      1
      1
      1
      1
      1
      1
      1
      1
      6
      6
      6
      6
      6
      6
      6
      8
      8
      8
      8
      8
      8
      8
      8
      8
      8
      8
      8
      8
      8
      8
      8
      8
      8
      8
      8
      8
      8
      7
      7
      7
      7
      7
      7
      3
      3
      3
      3
      3
      3
      3
      3
      3
      3
      3
      3
      3
      3
      3
      3
      3
      3
      3
      3
      3
      3
      3
      3
      3
      3
      3
      5
      5
      5
      5
      5
      5
      5
      5
      5
      5
      5
      5
      5
      5
      5
      5
      5
    );
  index 28;
  sCoords
    131
    (
      2.17414742596e-06
      2.72075701619e-06
      5.18418734183e-06
      7.10058358893e-06
      1.19263104694e-05
      1.26302010853e-05
      1.48328850186e-05
      1.57571147381e-05
      1.58637889441e-05
      1.99457319837e-05
      2.22695768808e-05
      2.48214653003e-05
      2.49842945987e-05
      2.73590772931e-05
      2.74378637492e-05
      2.75179277437e-05
      2.75726910362e-05
      2.96434115212e-05
      3.57165764794e-05
      2.22044604925e-18
      1.93678847633e-07
      9.52938251542e-07
      1.09412534193e-06
      1.42562710796e-06
      2.19588152781e-06
      3.68513287913e-06
      4.74084974726e-06
      7.02614301304e-06
      8.66197828306e-06
      8.76704632372e-06
      8.98589596755e-06
      1.0754313641e-05
      1.09449092886e-05
      1.3338993531e-05
      1.34178371023e-05
      1.36755132166e-05
      1.37220974634e-05
      1.4632908609e-05
      1.48690415865e-05
      1.74134242739e-05
      1.86203850318e-05
      1.91787008153e-05
      1.92817788117e-05
      1.93876901316e-05
      2.0519426093e-05
      2.08118268672e-05
      2.24914925323e-05
      2.28326181358e-05
      2.41892921223e-05
      2.63564682706e-05
      2.63628398313e-05
      2.78824480235e-05
      2.22044604925e-18
      9.36370539736e-07
      1.58767243162e-06
      1.96850815499e-06
      2.61814365575e-06
      2.65133875217e-06
      4.44138579846e-06
      2.22044604925e-18
      4.8693064127e-07
      1.66769276394e-06
      2.49494243001e-06
      2.57116352385e-06
      2.79472149701e-06
      3.28328424667e-06
      6.3830299183e-06
      8.1919595586e-06
      8.49773754613e-06
      8.82114754377e-06
      1.02617320762e-05
      1.06685821169e-05
      1.06939771792e-05
      1.11999031253e-05
      1.24094559651e-05
      1.32964189294e-05
      1.4883262269e-05
      1.65716444004e-05
      1.66882104174e-05
      1.68297249173e-05
      1.89273662884e-05
      4.5e-06
      4.08614866692e-06
      3.37521885298e-06
      3.19224188053e-06
      2.58726970802e-06
      2.15307346247e-06
      2.22044604925e-18
      7.26101932808e-07
      2.68261312041e-06
      2.92313568377e-06
      3.44858126708e-06
      4.00667079434e-06
      4.90220011313e-06
      6.85661167921e-06
      8.92746561535e-06
      9.5483273483e-06
      9.93586854311e-06
      1.03177319018e-05
      1.17593716563e-05
      1.45247619675e-05
      1.49074074052e-05
      1.54338729722e-05
      1.62254538715e-05
      1.73635993294e-05
      1.8509952592e-05
      1.9214728388e-05
      2.1364409467e-05
      2.22488576259e-05
      2.26888846237e-05
      2.34602463711e-05
      2.44976922685e-05
      2.60828797835e-05
      2.80858998034e-05
      2.22044604925e-18
      4.23082174451e-06
      5.99566609755e-06
      9.00813251011e-06
      1.37169819617e-05
      1.42242551968e-05
      1.57405910607e-05
      2.10743730894e-05
      2.23801823335e-05
      2.34964263357e-05
      2.57489611899e-05
      2.62651521406e-05
      2.78823628866e-05
      2.85135974391e-05
      3.44074345427e-05
      3.66534423933e-05
      3.72964774752e-05
    );
  times
    131
    (
      5.34076302138
      5.34128855144
      5.34358678754
      5.3453746729
      5.34987679322
      5.35053348191
      5.3525884569
      5.35342282839
      5.35351913119
      5.35720420731
      5.35937221838
      5.3617529807
      5.36190489089
      5.36404878533
      5.36411991177
      5.36419219154
      5.36424163047
      5.36611102515
      5.37159372663
      5.3755899097
      5.37594596711
      5.37736732019
      5.37762943815
      5.37823392202
      5.37964611066
      5.38225077048
      5.38411173952