/*--------------------------------*- C++ -*----------------------------------*\
| =========                 |                                                 |
| \\      /  F ield         | OpenFOAM: The Open Source CFD Toolbox           |
|  \\    /   O peration     | Version:  dev                                   |
|   \\  /    A nd           | Web:      www.OpenFOAM.org                      |
|    \\/     M anipulation  |                                                 |
\*---------------------------------------------------------------------------*/
FoamFile
{
    version     2.0;
    format      ascii;
    class       dictionary;
    object      topoSetDict;
}

// * * * * * * * * * * * * * * * * * * * * * * * * * * * * * * * * * * * * * //

actions
(
    {
        name    cellSet0;
        type    cellSet;
        action  new;
        source  boxToCell;
        sourceInfo
        {
            boxes       ((0 0 0) (1 1 1));
        }
    }
    {
        name    faceSet0;
        type    faceSet;
        action  new;
        source  cellToFace;
        sourceInfo
        {
            set    cellSet0;
            option all;
        }
    }
    {
        name    pointSet0;
        type    pointSet;
        action  new;
        source  cellToPoint;
        sourceInfo
        {
            set    cellSet0;
            option all;
        }
    }
);

