/*--------------------------------*- C++ -*----------------------------------*\
| =========                 |                                                 |
| \\      /  F ield         | OpenFOAM: The Open Source CFD Toolbox           |
|  \\    /   O peration     | Version:  1.7.1                                 |
|   \\  /    A nd           | Web:      www.OpenFOAM.com                      |
|    \\/     M anipulation  |                                                 |
\*---------------------------------------------------------------------------*/
FoamFile
{
    version     2.0;
    format      ascii;
    class       dictionary;
    object      setFieldsDict;
}

// * * * * * * * * * * * * * * * * * * * * * * * * * * * * * * * * * * * * * //

defaultFieldValues
(
    volVectorFieldValue U     (0 0 0)
);

regions
(
    cellToCell
    {
        set leftChannel;

        fieldValues
        (
            volVectorFieldValue U (2 0 0)
        );
    }

    cellToCell
    {
        set rightChannel;

        fieldValues
        (
            volVectorFieldValue U (1 0 0)
        );
    }
);

// ************************************************************************* //

