/*--------------------------------*- C++ -*----------------------------------*\
| =========                 |                                                 |
| \\      /  F ield         | OpenFOAM: The Open Source CFD Toolbox           |
|  \\    /   O peration     | Version:  dev                                   |
|   \\  /    A nd           | Web:      www.OpenFOAM.org                      |
|    \\/     M anipulation  |                                                 |
\*---------------------------------------------------------------------------*/
FoamFile
{
    version     2.0;
    format      ascii;
    class       dictionary;
    object      topoSetDict;
}

// * * * * * * * * * * * * * * * * * * * * * * * * * * * * * * * * * * * * * //

actions
(
    {
        name    leftChannel;
        type    cellSet;
        action  new;
        source  boxToCell;
        sourceInfo
        {
            boxes ((0 0 0 )(1 0.5 0.1));
        }
    }
    {
        name    rightChannel;
        type    cellSet;
        action  new;
        source  boxToCell;
        sourceInfo
        {
            boxes ((1 0 0 )(2 1.0 0.1));
        }
    }
);

