// -*- C++ -*-
// File generated by PyFoam - sorry for the ugliness

FoamFile
{
 version 2.0;
 format ascii;
 class dictionary;
 location "constant";
 object graphDict;
}

useEffectiveDiameter  true;
minimalDiameter      3.0e-6;

edgePoints
  (

    119
    (

(0.0061529 0.00804682 0.00202677)
(0.00615193 0.0080476 0.00202776)
(0.00615096 0.00804826 0.00202875)
(0.00615003 0.00804865 0.00202975)
(0.00614915 0.00804897 0.00203074)
(0.00614838 0.00804935 0.00203174)
(0.00614783 0.00805001 0.00203273)
(0.00614723 0.00805078 0.00203372)
(0.00614678 0.00805154 0.00203472)
(0.00614626 0.00805217 0.00203571)
(0.00614588 0.00805249 0.00203671)
(0.00614549 0.00805267 0.0020377)
(0.00614486 0.00805279 0.00203869)
(0.00614419 0.00805291 0.00203967)
(0.00614364 0.00805308 0.00204067)
(0.00614293 0.00805291 0.00204163)
(0.0061422 0.0080528 0.00204258)
(0.00614159 0.00805269 0.00204349)
(0.0061408 0.00805254 0.00204433)
(0.00613992 0.00805226 0.00204498)
(0.006139 0.00805171 0.00204582)
(0.0061381 0.00805113 0.00204673)
(0.00613725 0.00805072 0.00204768)
(0.00613653 0.00805026 0.00204865)
(0.00613607 0.00804954 0.00204964)
(0.00613565 0.00804868 0.00205062)
(0.00613505 0.00804776 0.00205162)
(0.00613447 0.00804682 0.00205261)
(0.00613411 0.00804587 0.0020536)
(0.00613381 0.00804494 0.0020546)
(0.0061334 0.00804406 0.00205559)
(0.00613319 0.0080433 0.00205659)
(0.00613307 0.00804276 0.00205758)
(0.00613296 0.00804219 0.00205857)
(0.00613283 0.00804177 0.00205957)
(0.0061326 0.00804132 0.00206056)
(0.00613216 0.0080411 0.00206156)
(0.00613178 0.00804101 0.00206255)
(0.00613128 0.00804098 0.00206354)
(0.00613091 0.00804102 0.00206454)
(0.00613047 0.00804114 0.00206553)
(0.00613025 0.0080414 0.00206653)
(0.00613013 0.00804192 0.00206752)
(0.00613006 0.00804248 0.00206851)
(0.00613 0.00804286 0.00206951)
(0.00612992 0.00804325 0.0020705)
(0.00612978 0.00804383 0.0020715)
(0.0061295 0.00804441 0.00207249)
(0.00612897 0.00804478 0.00207348)
(0.00612839 0.00804512 0.00207448)
(0.00612798 0.0080456 0.00207547)
(0.00612753 0.00804596 0.00207647)
(0.00612683 0.00804639 0.00207746)
(0.00612601 0.00804661 0.00207845)
(0.00612517 0.00804671 0.00207945)
(0.00612437 0.00804676 0.00208044)
(0.00612373 0.00804679 0.00208144)
(0.00612291 0.00804679 0.00208243)
(0.00612201 0.00804678 0.00208342)
(0.00612107 0.00804676 0.00208442)
(0.00612011 0.0080467 0.00208541)
(0.00611916 0.00804657 0.00208641)
(0.00611825 0.00804632 0.0020874)
(0.0061174 0.00804583 0.00208839)
(0.00611669 0.00804533 0.00208939)
(0.00611627 0.00804507 0.00209038)
(0.00611591 0.00804494 0.00209138)
(0.00611546 0.00804486 0.00209237)
(0.00611517 0.00804478 0.00209336)
(0.0061149 0.00804468 0.00209436)
(0.00611451 0.00804451 0.00209535)
(0.00611432 0.00804418 0.00209635)
(0.00611421 0.00804401 0.00209734)
(0.00611415 0.00804392 0.00209833)
(0.0061141 0.00804388 0.00209933)
(0.00611403 0.00804386 0.00210032)
(0.00611391 0.00804385 0.00210132)
(0.00611368 0.00804385 0.00210231)
(0.00611321 0.00804385 0.0021033)
(0.00611279 0.00804386 0.0021043)
(0.00611219 0.00804387 0.00210529)
(0.00611161 0.0080439 0.00210629)
(0.00611125 0.00804397 0.00210728)
(0.00611095 0.00804409 0.00210827)
(0.00611055 0.00804434 0.00210927)
(0.00611034 0.00804434 0.00211026)
(0.00611023 0.0080446 0.00211126)
(0.00611015 0.00804474 0.00211225)
(0.00611008 0.00804483 0.00211324)
(0.00610996 0.00804492 0.00211424)
(0.00610973 0.00804504 0.00211523)
(0.0061093 0.00804528 0.00211623)
(0.00610894 0.00804573 0.00211722)
(0.00610846 0.00804614 0.00211821)
(0.00610814 0.0080467 0.00211921)
(0.00610779 0.00804719 0.0021202)
(0.00610726 0.00804788 0.0021212)
(0.00610676 0.00804859 0.00212218)
(0.00610606 0.0080492 0.00212316)
(0.00610529 0.00805 0.00212412)
(0.00610458 0.00805089 0.00212507)
(0.00610406 0.00805184 0.00212595)
(0.00610348 0.0080528 0.00212675)
(0.00610303 0.00805377 0.00212732)
(0.00610249 0.00805473 0.00212798)
(0.0061021 0.00805566 0.00212855)
(0.00610167 0.00805655 0.00212932)
(0.00610096 0.00805732 0.00213016)
(0.00610012 0.00805788 0.00213102)
(0.00609924 0.008058 0.00213182)
(0.00609836 0.00805775 0.00213247)
(0.00609755 0.0080575 0.00213329)
(0.0060969 0.00805712 0.0021342)
(0.00609609 0.00805642 0.00213515)
(0.00609519 0.00805555 0.00213613)
(0.00609427 0.00805457 0.00213711)
(0.00609336 0.0080535 0.00213809)
(0.00609251 0.00805228 0.00213909)
(0.00609127 0.0080508 0.00214008)    )

    78
    (

(0.00606046 0.00799315 0.00204863)
(0.00606028 0.00799414 0.00204863)
(0.00606003 0.00799513 0.00204863)
(0.00605955 0.00799613 0.00204863)
(0.00605912 0.00799712 0.00204863)
(0.00605851 0.00799812 0.00204863)
(0.00605793 0.00799911 0.00204863)
(0.00605758 0.0080001 0.00204862)
(0.00605728 0.0080011 0.00204861)
(0.00605688 0.00800209 0.00204859)
(0.00605668 0.00800309 0.00204853)
(0.00605658 0.00800408 0.00204845)
(0.00605654 0.00800507 0.00204825)
(0.00605651 0.00800607 0.00204787)
(0.00605651 0.00800706 0.0020476)
(0.00605652 0.00800806 0.00204731)
(0.00605655 0.00800905 0.00204687)
(0.00605661 0.00801004 0.00204655)
(0.00605673 0.00801104 0.00204616)
(0.00605698 0.00801203 0.00204552)
(0.00605748 0.00801303 0.00204484)
(0.00605798 0.00801402 0.00204425)
(0.00605824 0.00801501 0.00204393)
(0.00605837 0.00801601 0.00204376)
(0.00605846 0.008017 0.00204364)
(0.00605855 0.00801799 0.00204349)
(0.00605868 0.00801898 0.00204376)
(0.00605891 0.00801997 0.00204409)
(0.00605936 0.00802095 0.00204462)
(0.00605976 0.00802192 0.00204514)
(0.00606031 0.00802285 0.00204589)
(0.00606078 0.00802373 0.00204676)
(0.00606141 0.0080245 0.0020477)
(0.00606202 0.00802505 0.00204866)
(0.00606242 0.00802563 0.00204964)
(0.0060628 0.00802606 0.00205064)
(0.00606337 0.00802655 0.00205162)
(0.0060639 0.00802685 0.00205261)
(0.00606416 0.00802709 0.0020536)
(0.00606428 0.00802741 0.0020546)
(0.00606433 0.00802797 0.00205559)
(0.00606432 0.00802854 0.00205659)
(0.00606425 0.00802892 0.00205758)
(0.0060641 0.0080293 0.00205857)
(0.00606378 0.00802985 0.00205957)
(0.00606363 0.00803038 0.00206056)
(0.00606357 0.00803063 0.00206156)
(0.00606357 0.00803074 0.00206255)
(0.00606364 0.00803076 0.00206354)
(0.00606381 0.0080307 0.00206454)
(0.00606366 0.00803053 0.00206553)
(0.00606362 0.00803016 0.00206653)
(0.00606368 0.00802991 0.00206752)
(0.00606386 0.00802965 0.00206851)
(0.00606424 0.00802976 0.00206949)
(0.00606452 0.00802978 0.00207049)
(0.00606485 0.00803022 0.00207145)
(0.0060654 0.00803082 0.0020724)
(0.00606592 0.00803137 0.00207331)
(0.0060662 0.00803214 0.00207414)
(0.00606636 0.00803302 0.0020748)
(0.0060665 0.00803395 0.00207563)
(0.00606667 0.00803491 0.00207652)
(0.00606696 0.00803589 0.00207746)
(0.00606703 0.00803686 0.0020784)
(0.00606691 0.00803781 0.00207929)
(0.00606653 0.00803874 0.00208012)
(0.0060662 0.00803959 0.00208078)
(0.00606576 0.00804032 0.00208161)
(0.00606549 0.00804077 0.00208252)
(0.00606525 0.00804117 0.00208347)
(0.00606492 0.00804173 0.00208443)
(0.00606484 0.00804224 0.00208543)
(0.00606496 0.00804244 0.00208641)
(0.00606533 0.00804243 0.0020874)
(0.00606567 0.00804222 0.00208839)
(0.00606612 0.0080422 0.00208939)
(0.00606642 0.00804185 0.00209038)    )

    118
    (

(0.00606642 0.00804185 0.00209038)
(0.00606579 0.00804086 0.00209064)
(0.00606534 0.00803986 0.00209104)
(0.00606485 0.00803887 0.00209125)
(0.00606456 0.00803788 0.00209139)
(0.00606434 0.00803688 0.00209155)
(0.00606406 0.00803589 0.0020918)
(0.0060636 0.00803489 0.00209226)
(0.00606322 0.0080339 0.00209264)
(0.00606274 0.00803291 0.00209318)
(0.00606239 0.00803191 0.00209361)
(0.00606202 0.00803092 0.00209417)
(0.00606144 0.00802992 0.00209463)
(0.00606086 0.00802893 0.00209524)
(0.00606048 0.00802794 0.00209578)
(0.00606011 0.00802694 0.00209654)
(0.00605957 0.00802595 0.00209741)
(0.00605908 0.00802496 0.00209831)
(0.0060584 0.00802397 0.00209919)
(0.00605769 0.00802299 0.0021)
(0.00605709 0.00802203 0.00210065)
(0.00605629 0.00802109 0.00210147)
(0.00605539 0.00802021 0.00210237)
(0.00605444 0.00801944 0.00210329)
(0.00605348 0.0080189 0.00210421)
(0.00605249 0.00801831 0.00210509)
(0.00605151 0.00801787 0.00210587)
(0.00605052 0.00801738 0.00210646)
(0.00604953 0.00801707 0.00210714)
(0.00604854 0.00801681 0.00210772)
(0.00604756 0.00801644 0.00210805)
(0.00604658 0.00801579 0.00210826)
(0.00604563 0.00801503 0.00210844)
(0.00604471 0.00801428 0.00210873)
(0.00604387 0.00801365 0.00210925)
(0.00604319 0.00801284 0.00210975)
(0.00604281 0.00801194 0.00211001)
(0.00604256 0.00801099 0.00211013)
(0.00604231 0.00801002 0.00211019)
(0.00604194 0.00800904 0.00211022)
(0.00604175 0.00800805 0.00211023)
(0.00604164 0.00800706 0.00211023)
(0.00604157 0.00800607 0.00211021)
(0.00604149 0.00800507 0.00211016)
(0.00604138 0.00800408 0.00211006)
(0.00604117 0.00800309 0.00210986)
(0.00604126 0.00800209 0.00210945)
(0.00604118 0.0080011 0.00210914)
(0.00604092 0.0080001 0.00210877)
(0.00604082 0.00799911 0.00210813)
(0.00604084 0.00799812 0.00210744)
(0.006041 0.00799712 0.00210683)
(0.00604088 0.00799613 0.00210648)
(0.0060409 0.00799513 0.00210623)
(0.00604108 0.00799414 0.00210595)
(0.00604152 0.00799315 0.00210549)
(0.00604194 0.00799215 0.00210515)
(0.00604253 0.00799116 0.00210472)
(0.00604311 0.00799016 0.00210451)
(0.00604346 0.00798917 0.0021044)
(0.00604376 0.00798818 0.00210435)
(0.00604416 0.00798718 0.00210433)
(0.00604435 0.00798619 0.00210431)
(0.00604445 0.00798519 0.0021043)
(0.0060445 0.0079842 0.0021043)
(0.00604452 0.00798321 0.0021043)
(0.00604453 0.00798221 0.0021043)
(0.00604453 0.00798122 0.0021043)
(0.00604451 0.00798022 0.0021043)
(0.00604446 0.00797923 0.0021043)
(0.00604438 0.00797824 0.0021043)
(0.0060442 0.00797724 0.0021043)
(0.00604385 0.00797625 0.0021043)
(0.00604364 0.00797525 0.0021043)
(0.00604348 0.00797426 0.00210428)
(0.00604328 0.00797327 0.00210427)
(0.00604293 0.00797227 0.00210424)
(0.00604277 0.00797128 0.0021042)
(0.00604272 0.00797028 0.0021041)
(0.00604273 0.00796929 0.00210389)
(0.00604284 0.0079683 0.00210347)
(0.00604258 0.0079673 0.00210315)
(0.00604232 0.00796631 0.00210274)
(0.00604244 0.00796531 0.00210205)
(0.0060425 0.00796432 0.00210124)
(0.00604254 0.00796333 0.00210039)
(0.00604255 0.00796233 0.00209958)
(0.00604256 0.00796134 0.00209889)
(0.00604256 0.00796034 0.00209848)
(0.00604256 0.00795935 0.00209814)
(0.00604256 0.00795836 0.00209771)
(0.00604256 0.00795736 0.00209745)
(0.00604255 0.00795637 0.00209725)
(0.00604254 0.00795537 0.00209701)
(0.00604251 0.00795438 0.0020966)
(0.00604245 0.00795339 0.00209633)
(0.00604234 0.00795239 0.00209605)
(0.00604211 0.0079514 0.00209562)
(0.00604165 0.0079504 0.00209532)
(0.00604123 0.00794941 0.00209501)
(0.00604113 0.00794842 0.00209453)
(0.00604081 0.00794742 0.00209412)
(0.00604061 0.00794643 0.00209361)
(0.00604043 0.00794543 0.00209319)
(0.00604018 0.00794444 0.00209271)
(0.00603972 0.00794345 0.0020924)
(0.00603934 0.00794245 0.00209209)
(0.00603933 0.00794146 0.00209165)
(0.00603919 0.00794046 0.00209135)
(0.00603885 0.00793947 0.00209102)
(0.00603865 0.00793848 0.00209052)
(0.00603848 0.00793748 0.0020901)
(0.00603825 0.00793649 0.00208952)
(0.00603785 0.00793549 0.002089)
(0.00603758 0.0079345 0.00208829)
(0.0060373 0.00793351 0.00208754)
(0.00603688 0.00793251 0.00208686)
(0.0060366 0.00793152 0.00208641)    )

    56
    (

(0.00609127 0.0080508 0.00214008)
(0.00609028 0.00805037 0.00214001)
(0.00608929 0.00804973 0.00213988)
(0.0060883 0.00804905 0.00213967)
(0.00608731 0.00804849 0.00213926)
(0.00608633 0.00804778 0.00213892)
(0.00608536 0.00804704 0.00213851)
(0.00608443 0.00804642 0.00213781)
(0.00608355 0.00804609 0.00213696)
(0.00608278 0.00804589 0.00213603)
(0.00608224 0.00804573 0.00213507)
(0.00608165 0.00804551 0.0021341)
(0.00608122 0.00804513 0.00213311)
(0.00608074 0.00804491 0.00213213)
(0.00608046 0.00804472 0.00213114)
(0.00608024 0.00804446 0.00213014)
(0.00607997 0.00804403 0.00212915)
(0.00607951 0.00804369 0.00212815)
(0.00607914 0.00804327 0.00212716)
(0.00607866 0.00804306 0.00212617)
(0.00607834 0.00804296 0.00212517)
(0.00607801 0.00804291 0.00212418)
(0.00607752 0.00804289 0.00212318)
(0.00607711 0.00804289 0.00212219)
(0.00607657 0.00804291 0.0021212)
(0.00607614 0.00804297 0.0021202)
(0.00607559 0.00804309 0.00211921)
(0.00607516 0.00804334 0.00211821)
(0.00607463 0.00804333 0.00211722)
(0.00607422 0.00804357 0.00211623)
(0.00607374 0.00804368 0.00211523)
(0.00607343 0.0080437 0.00211424)
(0.00607315 0.00804366 0.00211324)
(0.00607276 0.00804353 0.00211225)
(0.00607256 0.00804324 0.00211126)
(0.00607244 0.00804314 0.00211026)
(0.00607235 0.00804319 0.00210927)
(0.00607223 0.00804342 0.00210827)
(0.00607204 0.00804344 0.00210728)
(0.00607169 0.00804325 0.00210629)
(0.00607148 0.00804327 0.00210529)
(0.00607131 0.00804349 0.0021043)
(0.00607109 0.00804354 0.0021033)
(0.00607073 0.00804344 0.00210231)
(0.00607054 0.00804364 0.00210132)
(0.00607042 0.00804373 0.00210032)
(0.00607031 0.00804377 0.00209933)
(0.00607016 0.00804377 0.00209833)
(0.00606988 0.00804374 0.00209734)
(0.00606935 0.00804365 0.00209635)
(0.00606879 0.00804347 0.00209535)
(0.00606843 0.00804311 0.00209436)
(0.00606807 0.00804288 0.00209336)
(0.00606754 0.00804267 0.00209237)
(0.00606707 0.00804238 0.00209138)
(0.00606642 0.00804185 0.00209038)    )

    97
    (

(0.00609127 0.0080508 0.00214008)
(0.00609176 0.0080503 0.0021415)
(0.006092 0.00804956 0.00214262)
(0.00609211 0.00804869 0.00214353)
(0.00609215 0.00804776 0.00214419)
(0.00609212 0.00804681 0.0021449)
(0.00609201 0.00804585 0.00214553)
(0.00609179 0.0080449 0.00214592)
(0.00609132 0.00804399 0.00214623)
(0.00609088 0.00804315 0.00214663)
(0.00609024 0.00804247 0.00214734)
(0.00608958 0.0080421 0.00214818)
(0.00608908 0.00804235 0.00214908)
(0.00608847 0.00804284 0.00215004)
(0.00608794 0.00804334 0.00215099)
(0.00608725 0.00804408 0.00215194)
(0.00608653 0.00804493 0.00215285)
(0.00608592 0.00804584 0.00215367)
(0.00608513 0.00804675 0.00215432)
(0.00608424 0.00804763 0.00215516)
(0.00608332 0.00804841 0.00215607)
(0.0060824 0.00804899 0.00215702)
(0.00608151 0.00804966 0.00215799)
(0.00608072 0.00805025 0.00215898)
(0.00608012 0.00805058 0.00215996)
(0.00607941 0.00805079 0.00216096)
(0.00607874 0.00805101 0.00216195)
(0.00607826 0.00805133 0.00216294)
(0.00607774 0.00805141 0.00216394)
(0.00607742 0.0080518 0.00216493)
(0.00607712 0.0080522 0.00216593)
(0.00607671 0.0080523 0.00216692)
(0.00607647 0.00805266 0.00216791)
(0.00607629 0.00805295 0.00216891)
(0.00607607 0.00805332 0.0021699)
(0.0060757 0.00805347 0.0021709)
(0.0060755 0.00805395 0.00217189)
(0.00607537 0.00805452 0.00217287)
(0.00607525 0.00805496 0.00217386)
(0.00607506 0.00805549 0.00217483)
(0.00607472 0.00805588 0.00217579)
(0.00607454 0.00805632 0.0021767)
(0.00607446 0.00805704 0.00217754)
(0.00607441 0.00805789 0.00217822)
(0.00607439 0.00805882 0.00217861)
(0.00607437 0.00805978 0.00217885)
(0.00607436 0.00806076 0.0021791)
(0.00607434 0.00806174 0.00217949)
(0.00607429 0.00806273 0.0021797)
(0.00607421 0.00806372 0.00217983)
(0.00607405 0.00806472 0.00217996)
(0.00607373 0.00806571 0.00218013)
(0.00607359 0.0080667 0.00218045)
(0.00607355 0.0080677 0.00218057)
(0.00607359 0.00806869 0.00218057)
(0.00607373 0.00806968 0.00218042)
(0.00607405 0.00807068 0.00218007)
(0.00607421 0.00807167 0.00217984)
(0.00607429 0.00807267 0.0021796)
(0.00607432 0.00807366 0.00217925)
(0.00607433 0.00807465 0.00217858)
(0.00607433 0.00807565 0.00217778)
(0.00607429 0.00807664 0.00217696)
(0.00607422 0.00807764 0.00217618)
(0.00607407 0.00807863 0.00217554)
(0.00607377 0.00807962 0.00217476)
(0.00607316 0.00808062 0.00217391)
(0.00607245 0.00808161 0.00217307)
(0.00607177 0.00808261 0.00217233)
(0.00607128 0.0080836 0.00217179)
(0.00607073 0.00808459 0.00217122)
(0.00607034 0.00808559 0.00217081)
(0.00606993 0.00808658 0.00217036)
(0.00606978 0.00808758 0.00217013)
(0.00606933 0.00808857 0.00217002)
(0.00606884 0.00808956 0.00216996)
(0.00606856 0.00809056 0.00216994)
(0.00606837 0.00809155 0.00216994)
(0.00606814 0.00809255 0.00216996)
(0.00606779 0.00809354 0.00217)
(0.00606763 0.00809453 0.0021701)
(0.00606757 0.00809553 0.00217029)
(0.00606758 0.00809652 0.00217067)
(0.00606768 0.00809751 0.00217092)
(0.00606792 0.00809849 0.00217121)
(0.0060684 0.00809946 0.00217165)
(0.00606889 0.00810042 0.00217195)
(0.00606961 0.00810133 0.00217229)
(0.00607044 0.00810216 0.00217284)
(0.0060713 0.00810282 0.00217335)
(0.0060721 0.00810365 0.00217362)
(0.00607276 0.00810456 0.00217375)
(0.00607312 0.00810551 0.00217381)
(0.00607334 0.00810648 0.00217385)
(0.00607355 0.00810747 0.00217386)
(0.00607385 0.00810845 0.00217388)
(0.00607437 0.00810944 0.00217388)    )
  );

edgeIndices
  (
    16946
    17062
    17265
    17282
    17473
  );

vertexPositions
  (

(0.0061529 0.00804682 0.00202677)
(0.00609127 0.0080508 0.00214008)
(0.00606046 0.00799315 0.00204863)
(0.00606642 0.00804185 0.00209038)
(0.0060366 0.00793152 0.00208641)
(0.00607437 0.00810944 0.00217388)  );

adjacencyList
  (

    (
      0
      1
    )

    (
      2
      3
    )

    (
      3
      4
    )

    (
      1
      3
    )

    (
      1
      5
    )
  );

vertexIndices
(0 1 2 3 4 5);

edgeType polygonal;

segmentDiameters
  (

    118
    (
      6.30042300287e-06
      6.28798180049e-06
      5.31196526152e-06
      4.83818750107e-06
      4.29756181853e-06
      4.73113554617e-06
      5.13413003892e-06
      4.87712650987e-06
      4.71727662065e-06
      5.06204037723e-06
      5.34315371374e-06
      5.31713670475e-06
      5.48859682434e-06
      4.72297345727e-06
      4.67636558206e-06
      5.361693774e-06
      5.25723518731e-06
      5.07829396001e-06
      4.72821725324e-06
      4.78237344189e-06
      5.11712128581e-06
      4.976438054e-06
      4.67027460137e-06
      5.17650095207e-06
      5.61205077025e-06
      5.64315777554e-06
      5.64657252677e-06
      5.55390150041e-06
      5.68944583162e-06
      5.93443682815e-06
      5.91534678403e-06
      6.29579651836e-06
      6.31397180212e-06
      5.69743661693e-06
      5.50858892339e-06
      5.27166858289e-06
      5.10621806188e-06
      5.10174700395e-06
      5.39706216532e-06
      5.56736959487e-06
      5.71261699614e-06
      6.44090618733e-06
      6.40355827811e-06
      6.37725557345e-06
      6.33163422792e-06
      5.76426101059e-06
      5.38591103313e-06
      5.32327880925e-06
      5.59575464878e-06
      6.09618239944e-06
      6.15630059067e-06
      6.22107818562e-06
      6.88523260568e-06
      6.92770696988e-06
      6.32623343243e-06
      5.76375460345e-06
      6.27922652114e-06
      6.86853370096e-06
      6.9635914076e-06
      6.96160578258e-06
      6.97437523541e-06
      6.95007212419e-06
      6.77652522376e-06
      6.70607444349e-06
      6.98532331201e-06
      6.94775006797e-06
      6.63611786049e-06
      6.94517146234e-06
      7.06011936069e-06
      7.04457212599e-06
      7.73652523507e-06
      8.95513288494e-06
      9.30681245563e-06
      8.71510914596e-06
      8.61386375939e-06
      9.16684413709e-06
      8.826285187e-06
      8.14319732159e-06
      7.75256495963e-06
      7.77222960157e-06
      8.03170268774e-06
      7.87656938331e-06
      7.5879877721e-06
      7.19865475826e-06
      7.07496238524e-06
      7.01776678693e-06
      7.04511040034e-06
      7.0048240875e-06
      6.90894687396e-06
      6.35268881852e-06
      6.15436922854e-06
      6.68395967799e-06
      6.34963903609e-06
      5.81209693387e-06
      5.84430813624e-06
      6.38289427333e-06
      6.58780565025e-06
      6.0431823565e-06
      5.79818315011e-06
      5.49001174769e-06
      5.1904028696e-06
      5.17208881312e-06
      5.08015533698e-06
      5.0437773002e-06
      5.01817325747e-06
      4.97968577586e-06
      4.9085591783e-06
      4.06785391786e-06
      3.53715885776e-06
      4.08956086497e-06
      4.4333515063e-06
      4.7367682603e-06
      4.95413295265e-06
      5.88790589354e-06
      6.89041952077e-06
      6.89361239588e-06
      6.65965028609e-06
      7.04897205514e-06
    )

    77
    (
      2.40622903975e-06
      2.22298515859e-06
      1.94714137999e-06
      1.77235230259e-06
      1.77235230259e-06
      1.77235230259e-06
      2.11762127444e-06
      3.4898253568e-06
      4.63484593019e-06
      4.53187690352e-06
      4.18805851261e-06
      3.39070172443e-06
      2.73934408014e-06
      3.79535565694e-06
      4.51175274402e-06
      4.28992444228e-06
      4.33952710239e-06
      3.07701877021e-06
      1.86574508742e-06
      1.77235230259e-06
      1.87571467001e-06
      2.23402682641e-06
      3.46439962145e-06
      4.67458172488e-06
      5.20714564873e-06
      5.36640064943e-06
      5.28194129215e-06
      5.39060766552e-06
      5.17253687457e-06
      5.2126576104e-06
      5.30435056083e-06
      5.28671679528e-06
      4.9945928382e-06
      4.64016794586e-06
      4.73071555793e-06
      4.94886914605e-06
      4.99974035876e-06
      3.72158193669e-06
      2.34778951991e-06
      2.18920567612e-06
      2.07572551064e-06
      1.77235230259e-06
      1.77235230259e-06
      1.9611853254e-06
      2.23708998995e-06
      2.2450110711e-06
      1.96861833389e-06
      1.77235230259e-06
      2.092804919e-06
      3.42762187808e-06
      4.21638053643e-06
      3.29692589508e-06
      2.35645551624e-06
      1.95452862643e-06
      1.77235230259e-06
      1.86612503692e-06
      2.17328751041e-06
      2.39342807197e-06
      2.35924084655e-06
      2.61432306919e-06
      3.62779480637e-06
      4.56738682818e-06
      4.52249730581e-06
      4.31033785366e-06
      4.08375786469e-06
      4.18650378914e-06
      4.66408316894e-06
      4.57079523343e-06
      5.1807646696e-06
      6.05290135741e-06
      6.79502029624e-06
      7.92744979268e-06
      9.00621976635e-06
      9.78652569741e-06
      9.94025586961e-06
      9.9364843746e-06
      1.03806674363e-05
    )

    117
    (
      5.39112929256e-06
      4.82141381161e-06
      5.03344865375e-06
      4.93655769034e-06
      4.58480038872e-06
      4.44852621984e-06
      3.53091001323e-06
      3.3263083682e-06
      3.92125199055e-06
      4.01018300795e-06
      4.15481534787e-06
      4.63323989002e-06
      4.25980762588e-06
      3.95442996598e-06
      4.30794391125e-06
      4.15923317067e-06
      3.8965273644e-06
      3.99706393514e-06
      4.45952471864e-06
      3.63170112875e-06
      3.42600146629e-06
      4.42899130825e-06
      4.75919758115e-06
      4.55974598473e-06
      4.51038761677e-06
      4.67347321031e-06
      3.67051080926e-06
      2.78165738767e-06
      2.76933635165e-06
      2.35441309173e-06
      2.1504375254e-06
      2.33965756744e-06
      2.59545847307e-06
      2.76322207168e-06
      2.88468531263e-06
      3.81405174994e-06
      3.94353189242e-06
      3.65125834554e-06
      4.13714878811e-06
      4.47776000728e-06
      4.72309871582e-06
      4.55644853764e-06
      4.52436772553e-06
      4.73689582088e-06
      4.54433409676e-06
      4.65699680258e-06
      4.96827065168e-06
      4.96998436655e-06
      4.9705549762e-06
      4.94221531467e-06
      4.91120042758e-06
      4.9003582692e-06
      4.85889288539e-06
      4.75899803221e-06
      4.60896250324e-06
      4.70924244788e-06
      4.65305620821e-06
      4.39894866031e-06
      3.48760788064e-06
      2.53641465317e-06
      3.11129349512e-06
      3.1984562026e-06
      2.55962965066e-06
      2.59814355371e-06
      2.57688831608e-06
      2.56674666809e-06
      2.7645146563e-06
      3.79118207173e-06
      4.16005623089e-06
      3.76164955598e-06
      3.31823863991e-06
      3.25927188986e-06
      3.89923038106e-06
      4.21348034577e-06
      4.6175242584e-06
      4.73931503795e-06
      4.57743197525e-06
      4.28217170303e-06
      4.1772601632e-06
      4.39021307022e-06
      4.13317174334e-06
      3.06309592074e-06
      2.41344550638e-06
      2.32826497677e-06
      2.30945883533e-06
      2.54784964314e-06
      2.65680084854e-06
      2.47329562323e-06
      2.60982068866e-06
      2.7512984864e-06
      2.69799653622e-06
      2.7045554131e-06
      2.59439378489e-06
      3.19825107795e-06
      4.54743692733e-06
      4.96894290871e-06
      4.51777726785e-06
      4.33719169286e-06
      4.76697097546e-06
      4.54890188878e-06
      4.28292226554e-06
      4.44589600043e-06
      4.17898130883e-06
      3.99972982717e-06
      4.11253998325e-06
      4.4050969077e-06
      4.75705189528e-06
      5.01525737955e-06
      5.02328470136e-06
      5.15649250245e-06
      5.38889156301e-06
      5.70830708149e-06
      6.78511057955e-06
      7.58237302883e-06
      7.81145249714e-06
      8.08260742569e-06
      9.46082554784e-06
    )

    55
    (
      9.21487758294e-06
      7.50146958183e-06
      6.40345781635e-06
      5.2511397922e-06
      4.26903087168e-06
      4.53114684709e-06
      5.25850717601e-06
      5.22827902898e-06
      5.55476841085e-06
      5.91633595639e-06
      5.70703610639e-06
      4.97297155255e-06
      4.4577486808e-06
      4.4290371995e-06
      4.64617422955e-06
      4.6161933843e-06
      4.0903506874e-06
      3.12464869242e-06
      2.469484683e-06
      2.60792457549e-06
      3.66156435448e-06
      4.07906224551e-06
      3.90546679664e-06
      4.76492489964e-06
      4.65865013312e-06
      4.23657492395e-06
      4.43666492484e-06
      4.12937670471e-06
      4.38607114733e-06
      4.83359131436e-06
      4.89185583405e-06
      5.16368401347e-06
      5.40364270995e-06
      5.34713915496e-06
      5.48971335661e-06
      5.56239895253e-06
      5.46866713152e-06
      5.67562063518e-06
      5.5657299257e-06
      5.47066151316e-06
      5.75549756609e-06
      5.76595157802e-06
      5.63347793898e-06
      5.85737194859e-06
      5.75695645091e-06
      5.03943306362e-06
      4.91606521048e-06
      5.23701928956e-06
      5.57302856356e-06
      6.54687995642e-06
      7.00726751731e-06
      6.62172184444e-06
      6.88409522209e-06
      7.40989656623e-06
      7.65377538004e-06
    )

    96
    (
      7.44285169088e-06
      6.90647626035e-06
      6.22710346748e-06
      5.74714082318e-06
      5.35404347211e-06
      4.27416319902e-06
      3.65837461477e-06
      3.87407669811e-06
      3.26088752711e-06
      2.99503747984e-06
      3.32901023111e-06
      3.50839129051e-06
      4.42493061699e-06
      4.61681637553e-06
      4.56392210936e-06
      4.91596212414e-06
      4.8456149607e-06
      4.70167395274e-06
      4.65581621871e-06
      4.98915078462e-06
      5.62462500967e-06
      6.01050083877e-06
      5.89987396651e-06
      5.60081408589e-06
      6.35730190775e-06
      6.64542728996e-06
      6.36622260324e-06
      6.40448757833e-06
      6.85436954295e-06
      7.06722481396e-06
      6.47472456195e-06
      6.75084229324e-06
      7.1424093065e-06
      6.86398908881e-06
      6.7048093233e-06
      7.05535226298e-06
      7.11497659457e-06
      7.11796037975e-06
      7.08631882983e-06
      6.5761565346e-06
      6.62685321514e-06
      7.20963510509e-06
      7.51233235157e-06
      7.43964181376e-06
      6.65502874574e-06
      5.77329521098e-06
      4.78372639388e-06
      3.40799449342e-06
      2.50881311009e-06
      2.02751580194e-06
      1.75724863353e-06
      1.75724863353e-06
      1.75724863353e-06
      1.75724863353e-06
      1.75724863353e-06
      1.75724863353e-06
      2.1056804882e-06
      3.37683076796e-06
      4.53454538132e-06
      4.77591613816e-06
      4.70289092825e-06
      4.91290326341e-06
      4.98300907587e-06
      4.40020001742e-06
      3.4420225903e-06
      2.55254852492e-06
      2.28287892238e-06
      2.67820409217e-06
      3.78257623149e-06
      4.05054582654e-06
      4.09865127171e-06
      4.35392042622e-06
      4.16595560026e-06
      4.31407111951e-06
      4.54495250947e-06
      4.5920752429e-06
      4.5893266855e-06
      4.71764060291e-06
      4.25183605707e-06
      3.75112560251e-06
      3.70502171964e-06
      3.85762119322e-06
      4.11498811713e-06
      3.63614449228e-06
      2.96169050594e-06
      2.96703865073e-06
      2.68909827267e-06
      2.30871471764e-06
      2.06906834416e-06
      1.75724863353e-06
      1.82916606938e-06
      2.05479542568e-06
      2.30322173339e-06
      2.3506240182e-06
      2.17836113521e-06
      2.26174216444e-06
    )
  );

