// -*- C++ -*-
// File generated by PyFoam - sorry for the ugliness

FoamFile
{
 version 2.0;
 format ascii;
 class dictionary;
 location "constant";
 object edgeVelocities;
}

edgeVelocities
  2625
  (

    (
      5.01404006648

      (
        0.00110769572007
        0.000496342083515
        0.000559846825548
        0.000517864227441
        0.000559846825548
        0.00110769572007
        0.000382387521308
        -0.000382387521308
        0.000393627116081
        0.000413387194152
        -0.000413387194152
        0.000575423190505
      )
    )

    (
      5.01678198552

      (
        0.00110769572007
        0.000499420981894
        0.000556634421476
        0.000521076631514
        0.000556634421476
        0.00110769572007
        0.000384759539234
        -0.000384759539234
        0.000396068855216
        0.000411015176226
        -0.000411296419158
        0.000411015176226
      )
    )

    (
      5.01878775987

      (
        0.00110769572007
        0.000499420981894
        0.000556634421476
        0.000521076631514
        0.000556634421476
        0.00114862979807
        0.000384759539234
        -0.000384759539234
        0.000396068855216
        0.000411015176226
        -0.000411296419158
        0.000411015176226
      )
    )

    (
      5.02218251384

      (
        0.00110769572007
        0.000537890882564
        0.00051649640769
        0.000588948094024
        0.00051649640769
        0.00110769572007
        0.000414397183211
        -0.000414397183211
        0.000426577644537
        0.000381377532248
        -0.000381638495204
        0.000381377532248
      )
    )

    (
      5.02257873109

      (
        0.00110769572007
        0.00053692695843
        0.000543075443773
        0.000587892673119
        0.000517502129034
        0.00110769572007
        0.000413654565221
        -0.000413654565221
        0.000425813198624
        0.000382381621341
        -0.000382381621341
        0.000382120150238
      )
    )

    (
      5.02814272833

      (
        0.00107187870181
        0.00054344569631
        0.000535937939914
        0.000595030176979
        0.000489476295832
        0.00110769572007
        0.000418676674172
        -0.000418676674172
        0.000430982923452
        0.000377356075942
        -0.000377098041288
        0.000377098041288
      )
    )

    (
      5.02815769601

      (
        0.00107187870181
        0.00054344569631
        0.000535937939914
        0.000595030176979
        0.000489476295832
        0.00114862979807
        0.000418676674172
        -0.000418676674172
        0.000430982923452
        0.000377356075942
        -0.000377098041288
        0.000377098041288
      )
    )

    (
      5.03109151161

      (
        0.00107187870181
        0.000581903905997
        0.00049382923343
        0.000448305311284
        0.000451018086146
        0.00110769572007
        0.000448305311284
        -0.000448305311284
        0.000461482441166
        0.000347707165017
        -0.000347469404176
        0.000347469404176
      )
    )

    (
      5.03319417716

      (
        0.00110769572007
        0.000506082189983
        0.000555392210306
        0.000404988210055
        0.000507244032542
        0.00110769572007
        0.000404988210055
        -0.000404988210055
        0.000416892111504
        0.000391053906583
        -0.000390786505405
        0.000390786505405
      )
    )

    (
      5.03454584899

      (
        0.00110769572007
        0.000503178541503
        0.000558694579248
        0.000402664588667
        0.000510260111824
        0.00110769572007
        0.000402664588667
        -0.000402664588667
        0.000414500191437
        0.000393110126792
        -0.000393110126792
        0.000547198090746
      )
    )

    (
      5.03802830896

      (
        0.00110769572007
        0.000478203718364
        0.000587098871583
        0.000382678686931
        0.000536201973303
        0.00110769572007
        0.000382678686931
        -0.00038294054022
        0.000424436223222
        0.000413096028529
        -0.000413096028529
        0.000575017896258
      )
    )

    (
      5.0417436405

      (
        0.00107187870181
        0.000482066498701
        0.000410004869571
        0.000385769845888
        0.000532189624071
        0.00110769572007
        0.000385769845888
        -0.000386033814347
        0.000427864686521
        0.000410285421187
        -0.000410004869571
        0.000570715091104
      )
    )

    (
      5.04268601474

      (
        0.00107187870181
        0.000512803655404
        0.000400705014098
        0.000395069701362
        0.000520118336739
        0.00110769572007
        0.000395340033377
        -0.000395340033377
        0.000438179333425
        0.000400979202156
        -0.000400705014098
        0.000557769957381
      )
    )

    (
      5.04324481331

      (
        0.00107187870181
        0.000466258016819
        0.000436564297357
        0.000359210418103
        0.000591235382906
        0.00107187870181
        0.000359456212898
        -0.000359456212898
        0.000398407119101
        0.000436863022635
        -0.000436564297357
        0.000607685057495
      )
    )

    (
      5.04475193764

      (
        0.00110769572007
        0.000502179763027
        0.000581120882297
        0.000386884935235
        0.000553756015417
        0.00107187870181
        0.000387149666709
        -0.000387149666709
        0.000429101453362
        0.000409169568824
        -0.000408889780225
        0.000569162918519
      )
    )

    (
      5.04703165171

      (
        0.00110769572007
        0.000502179763027
        0.000581120882297
        0.000386884935235
        0.000553756015417
        0.00107187870181
        0.000387149666709
        -0.000387149666709
        0.000429101453362
        0.000409169568824
        -0.000408889780225
        0.000569162918519
      )
    )

    (
      5.0497908157

      (
        0.00110769572007
        0.000506137672972
        0.000576787283059
        0.000554180833833
        0.000549626484507
        0.00107187870181
        0.000390200971499
        -0.000389934153554
        0.000432483399499
        0.000406118264035
        -0.000405840561906
        0.000564918493539
      )
    )

    (
      5.05252448783

      (
        0.00110769572007
        0.000438293593805
        0.000651071199021
        0.000479896917872
        0.000651071199021
        0.00104011099296
        0.000337897365157
        -0.000337897365157
        0.000234490494597
        0.000458421870376
        -0.00045810840324
        0.000637673838761
      )
    )

    (
      5.05253195535

      (
        0.00110769572007
        0.000443405377565
        0.000645474198959
        0.000485493917934
        0.000645474198959
        0.00104011099296
        0.000341838235588
        -0.000341838235588
        0.000237225338819
        0.000454170227561
        -0.000454170227561
        0.000593619572455
      )
    )

    (
      5.05348916395

      (
        0.00110769572007
        0.000443405377565
        0.000645474198959
        0.000485493917934
        0.000645474198959
        0.00104011099296
        0.000341838235588
        -0.000341838235588
        0.000237225338819
        0.000454170227561
        -0.000454170227561
        0.000593619572455
      )
    )

    (
      5.05479280744

      (
        0.00110769572007
        0.000469442988715
        0.000616965068284
        0.000514003048608
        0.000616965068284
        0.00104011099296
        0.000361664156259
        -0.000361911630059
        0.000401128606844
        0.000434110559201
        -0.000434110559201
        0.000567400742966
      )
    )

    (
      5.0588724666

      (
        0.00107187870181
        0.000496547056852
        0.000609883278541
        0.000521084838352
        0.000609883278541
        0.00107187870181
        0.000366897946924
        -0.000366897946924
        0.000406655244208
        0.000429127651961
        -0.000429127651961
        0.000560887873812
      )
    )

    (
      5.05910986431

      (
        0.00110769572007
        0.000539518714537
        0.000538192338453
        0.000566180019139
        0.000564788097753
        0.00107187870181
        0.000398649646512
        -0.000398649646512
        0.000441847578366
        0.000397397664065
        -0.000397397664065
        0.000519415446282
      )
    )

    (
      5.06194328287

      (
        0.00110769572007
        0.000538514117843
        0.000539196935147
        0.000538514117843
        0.000565842338432
        0.00107187870181
        0.000397907351377
        -0.000397635263839
        0.000441024847653
        0.000398139451621
        -0.000398139451621
        0.00052038499379
      )
    )

    (
      5.06643312048

      (
        0.00110769572007
        0.000568057772894
        0.000509653280095
        0.000568057772894
        0.000534838729601
        0.00107187870181
        0.000419450103379
        -0.000419450103379
        0.000431779086223
        0.00037632461208
        -0.00037632461208
        0.000491872081812
      )
    )

    (
      5.0681911999

      (
        0.00110769572007
        0.000568057772894
        0.000509653280095
        0.000568057772894
        0.000534838729601
        0.00110769572007
        0.000419450103379
        -0.000419450103379
        0.000431779086223
        0.00037632461208
        -0.00037632461208
        0.000491872081812
      )
    )

    (
      5.0692586319

      (
        0.00110769572007
        0.000597302595374
        0.000508535318149
        0.000569175734841
        0.000533665521519
        0.00110769572007
        0.000420563178595
        -0.000420275599088
        0.000432628845896
        0.000375499116371
        -0.000375499116371
        0.000490793124231
      )
    )

    (
      5.07076029789

      (
        0.00110769572007
        0.00059244823645
        0.000513161086276
        0.000564549966714
        0.000538519880443
        0.00110769572007
        0.000417145204799
        -0.00041685996249
        0.000429112812791
        0.000378914752969
        -0.000379174030734
        0.000527438535029
      )
    )

    (
      5.07487470493

      (
        0.00110769572007
        0.000523354288968
        0.000554356764022
        0.000523354288968
        0.000581751317993
        0.00110769572007
        0.00038670577438
        -0.000386441346438
        0.000397800096124
        0.000409333369022
        -0.000409613461154
        0.00056978038148
      )
    )

    (
      5.07937916704

      (
        0.00110769572007
        0.000485880188774
        0.000591830864216
        0.000485880188774
        0.000437003996818
        0.00107187870181
        0.000359016212566
        -0.000358770718642
        0.000369316139895
        0.000437003996818
        -0.000437303022967
        0.000608297106611
      )
    )

    (
      5.08037675842

      (
        0.00110769572007
        0.000485880188774
        0.000591830864216
        0.000485880188774
        0.000437003996818
        0.00110769572007
        0.000359016212566
        -0.000358770718642
        0.000369316139895
        0.000437003996818
        -0.000437303022967
        0.000608297106611
      )
    )

    (
      5.08052186725

      (
        0.00110769572007
        0.000512072543398
        0.000565638509591
        0.000512072543398
        0.000417663735353
        0.00110769572007
        0.000378110980107
        -0.000378110980107
        0.000365853726308
        0.000417663735353
        -0.000417949527655
        0.000581376013953
      )
    )

    (
      5.08194579308

      (
        0.00110769572007
        0.000507057413796
        0.000570653639194
        0.000507057413796
        0.000598853533075
        0.00110769572007
        0.000374407841569
        -0.000374407841569
        0.000362270632707
        0.00042136687389
        -0.00042136687389
        0.000586530677238
      )
    )

    (
      5.08807602814

      (
        0.00110769572007
        0.000533228925539
        0.000569591771602
        0.000508119281387
        0.000597739191354
        0.00110769572007
        0.000375448647939
        -0.000375191917577
        0.000363029291261
        0.000420582797882
        -0.000420582797882
        0.000585439265785
      )
    )

    (
      5.08883854388

      (
        0.00110769572007
        0.000537183185542
        0.000565823716918
        0.000511887336072
        0.000593784931351
        0.00110769572007
        0.000378232858436
        -0.000377974224241
        0.000365721403668
        0.000417800491218
        -0.000418086377098
        0.000417800491218
      )
    )

    (
      5.08935637736

      (
        0.00110769572007
        0.000537183185542
        0.000565823716918
        0.000511887336072
        0.000593784931351
        0.00114862979807
        0.000378232858436
        -0.000377974224241
        0.000365721403668
        0.000417800491218
        -0.000418086377098
        0.000417800491218
      )
    )

    (
      5.09327359744

      (
        0.00110769572007
        0.000588502301799
        0.00049543825509
        0.000560789845341
        0.000542465815094
        0.00114862979807
        0.000414366856217
        -0.000414083513731
        0.000400660135441
        0.000381691201728
        -0.000381952379317
        0.000381691201728
      )
    )

    (
      5.09513401796

      (
        0.00110769572007
        0.000581358161824
        0.000523728931491
        0.000553982121498
        0.000549609955069
        0.00114862979807
        0.000409336638301
        -0.00040905673546
        0.000395796310641
        0.000386982597232
        -0.000386982597232
        0.00038671798
      )
    )

    (
      5.09944669057

      (
        0.00110769572007
        0.000609285972092
        0.000497116236259
        0.00058059481673
        0.0005216821448
        0.00114862979807
        0.00042870737365
        -0.00042870737365
        0.000393338624486
        0.000367318512816
        -0.000367318512816
        0.000367067341809
      )
    )

    (
      5.1001715199

      (
        0.00110769572007
        0.000610336636252
        0.000496115047666
        0.000581596005324
        0.000496115047666
        0.00114862979807
        0.000429446644687
        -0.000429446644687
        0.000394016904989
        0.000366578735922
        -0.000366328070772
        0.000366328070772
      )
    )

    (
      5.10263305474

      (
        0.00110769572007
        0.000663284249051
        0.000445660727432
        0.000663284249051
        0.000445660727432
        0.00110769572007
        0.000466701781132
        -0.000466701781132
        0.000428198458713
        0.000329298107124
        -0.000329072934327
        0.000329072934327
      )
    )

    (
      5.10453728918

      (
        0.00107187870181
        0.000630437683061
        0.000476960555157
        0.000630437683061
        0.000476960555157
        0.00110769572007
        0.000443590195302
        -0.00044389372815
        0.000429210296561
        0.000352425507383
        -0.000352184520158
        0.000352184520158
      )
    )

    (
      5.10740929176

      (
        0.00110769572007
        0.000554988652601
        0.000522722400389
        0.000582414432502
        0.000522722400389
        0.00110769572007
        0.00040979995137
        -0.000410080362768
        0.000396515433662
        0.000386238872766
        -0.000385974764089
        0.000385974764089
      )
    )

    (
      5.10746949654

      (
        0.00110769572007
        0.000551774423169
        0.00052593662982
        0.000579041366041
        0.00052593662982
        0.00110769572007
        0.000407426585611
        -0.000407705373
        0.000394219005491
        0.000388348129848
        -0.000388348129848
        0.000540569526742
      )
    )

    (
      5.1123954191

      (
        0.00110769572007
        0.000550755463589
        0.000552996064184
        0.000577972052709
        0.0005269555894
        0.00110769572007
        0.000406674192595
        -0.000406952465148
        0.000393491002859
        0.000389366770386
        -0.000389100522864
        0.000541616836374
      )
    )

    (
      5.1131394973

      (
        0.00110769572007
        0.000590074559272
        0.000511733943433
        0.000435707152861
        0.000487636493717
        0.00107187870181
        0.000435707152861
        -0.000436005291626
        0.000421582799336
        0.000360313943907
        -0.000360067562598
        0.000501203783279
      )
    )

    (
      5.11509502535

      (
        0.00110769572007
        0.000590074559272
        0.000511733943433
        0.000435707152861
        0.000487636493717
        0.00110769572007
        0.000435707152861
        -0.000436005291626
        0.000421582799336
        0.000360313943907
        -0.000360067562598
        0.000501203783279
      )
    )

    (
      5.11517919208

      (
        0.00110769572007
        0.000595317302891
        0.000506232120044
        0.000624735996849
        0.000482393750098
        0.00110769572007
        0.000439578360083
        -0.000439578360083
        0.000425328513325
        0.000356440087757
        -0.000356196355376
        0.000495815173176
      )
    )

    (
      5.11667562851

      (
        0.00110769572007
        0.000564549966714
        0.000538519880443
        0.00059244823645
        0.000513161086276
        0.00110769572007
        0.00041685996249
        -0.000417145204799
        0.000429112812791
        0.000379174030734
        -0.000378914752969
        0.000527438535029
      )
    )

    (
      5.12443449392

      (
        0.00107187870181
        0.000569175734841
        0.000533665521519
        0.000597302595374
        0.000508535318149
        0.00110769572007
        0.000420275599088
        -0.000420563178595
        0.000432628845896
        0.000375499116371
        -0.000375499116371
        0.000490793124231
      )
    )

    (
      5.12529436985

      (
        0.00107187870181
        0.000598480430409
        0.000532487686484
        0.000598480430409
        0.000507412947131
        0.00110769572007
        0.000421392497018
        -0.000421392497018
        0.000433481956892
        0.000374670365033
        -0.000374670365033
        0.000489709911407
      )
    )

    (
      5.12676468359

      (
        0.00110769572007
        0.000528955490152
        0.000575873323202
        0.000555094793691
        0.000548755562837
        0.00110769572007
        0.000390844494339
        -0.000390844494339
        0.000402057553102
        0.000405197479104
        -0.000405197479104
        0.0005296101323
      )
    )

    (
      5.12748674868

      (
        0.00110769572007
        0.000527989811105
        0.000576886723046
        0.000527989811105
        0.000549721241884
        0.00110769572007
        0.000390130955401
        -0.000389864185333
        0.000401323543224
        0.000405910530127
        -0.000405910530127
        0.000530542119951
      )
    )

    (
      5.13052668183

      (
        0.00110769572007
        0.000502372921994
        0.000603769517612
        0.000502372921994
        0.000575338130996
        0.00110769572007
        0.000371202670776
        -0.000371202670776
        0.000411426430703
        0.000424825871662
        -0.000424825871662
        0.000555265266194
      )
    )

    (
      5.13463481873

      (
        0.00110769572007
        0.000459832032705
        0.000648412642795
        0.000459832032705
        0.000648412642795
        0.00107187870181
        0.000339769265372
        -0.000339769265372
        0.000376586881291
        0.000456237783023
        -0.000456237783023
        0.000596321954326
      )
    )

    (
      5.13724624458

      (
        0.00110769572007
        0.00048510872388
        0.000621886857669
        0.00048510872388
        0.000621886857669
        0.00107187870181
        0.000358201074065
        -0.000358446178203
        0.000368729751638
        0.000437573641394
        -0.000437573641394
        0.000571927136918
      )
    )

    (
      5.13894670977

      (
        0.00107187870181
        0.00048510872388
        0.000621886857669
        0.00048510872388
        0.000621886857669
        0.00110769572007
        0.000358201074065
        -0.000358446178203
        0.000368729751638
        0.000437573641394
        -0.000437573641394
        0.000571927136918
      )
    )

    (
      5.13951234335

      (
        0.00110769572007
        0.000527989811105
        0.000549721241884
        0.000527989811105
        0.000576886723046
        0.00110769572007
        0.000389864185333
        -0.000390130955401
        0.000401323543224
        0.000405910530127
        -0.000405910530127
        0.000530542119951
      )
    )

    (
      5.14278173766

      (
        0.00110769572007
        0.00052147845361
        0.00055623259938
        0.000499806104491
        0.000583719851188
        0.00110769572007
        0.000385056242013
        -0.000385056242013
        0.000396374279041
        0.000410718473447
        -0.000410718473447
        0.000536826303909
      )
    )

    (
      5.14477750951

      (
        0.00110769572007
        0.000516846350215
        0.000560864702774
        0.00049536650869
        0.000588580858448
        0.00110769572007
        0.000381635927495
        -0.000381635927495
        0.000392853430517
        0.000414138787965
        -0.000414422168272
        0.000576469387669
      )
    )

    (
      5.14547104251

      (
        0.00110769572007
        0.000515824764971
        0.000589652927197
        0.00049438737995
        0.000589652927197
        0.00110769572007
        0.000380881595705
        -0.000380881595705
        0.000392076926499
        0.000415177016224
        -0.000415177016224
        0.000577519396017
      )
    )

    (
      5.1485522779

      (
        0.00110769572007
        0.00049085271551
        0.000615859016181
        0.000470453154718
        0.000615859016181
        0.00110769572007
        0.000362442399504
        -0.000362690405829
        0.000401991771256
        0.000433628829705
        -0.000433628829705
        0.000603186231513
      )
    )

    (
      5.14945315233

      (
        0.00110769572007
        0.00049085271551
        0.000615859016181
        0.000470453154718
        0.000615859016181
        0.00114862979807
        0.000362442399504
        -0.000362690405829
        0.000401991771256
        0.000433628829705
        -0.000433628829705
        0.000603186231513
      )
    )

    (
      5.15202605862

      (
        0.00110769572007
        0.000453650816012
        0.000654899315622
        0.000434797345089
        0.000460801952557
        0.00110769572007
        0.000334972762902
        -0.00033520197274
        0.000371524673895
        0.000461117262793
        -0.000461117262793
        0.000641423182631
      )
    )

    (
      5.15512070521

      (
        0.00110769572007
        0.000448732309931
        0.000660060878682
        0.000430083249334
        0.000660060878682
        0.00110769572007
        0.000331340970534
        -0.000331567695267
        0.00036749658378
        0.000464751540266
        -0.000464433744925
        0.000646478534081
      )
    )

    (
      5.15573913339

      (
        0.00110769572007
        0.000454038956254
        0.00065449199472
        0.000435169354442
        0.00065449199472
        0.00110769572007
        0.00033525936309
        -0.000335488769039
        0.000371842547625
        0.000460515352369
        -0.000460515352369
        0.000601912917213
      )
    )

    (
      5.15683678437

      (
        0.00114862979807
        0.000496474540816
        0.000581236512173
        0.000475841340149
        0.00060995937809
        0.00110769572007
        0.000366593518137
        -0.000366844364923
        0.000406595856027
        0.000429181197322
        -0.000429181197322
        0.00056095785985
      )
    )

    (
      5.15969317144

      (
        0.00114862979807
        0.000491868137802
        0.000585842915187
        0.000471426376635
        0.000614793414938
        0.00110769572007
        0.00036319218061
        -0.000363440699983
        0.000402823367767
        0.000432582534849
        -0.00043287853555
        0.000602142557586
      )
    )

    (
      5.16129346425

      (
        0.00110769572007
        0.000480765720037
        0.000596945332952
        0.00044360860947
        0.000626444478995
        0.00110769572007
        0.000354994228744
        -0.000354994228744
        0.000393730863149
        0.000440780486715
        -0.000441082096981
        0.000613553872898
      )
    )

    (
      5.16154956186

      (
        0.00110769572007
        0.000505378340137
        0.000596130878471
        0.000444360116919
        0.000625589776755
        0.00110769572007
        0.000355838937864
        -0.000355595616548
        0.00039439787382
        0.000440179098912
        -0.000440480297669
        0.000612716758218
      )
    )

    (
      5.16993656019

      (
        0.00110769572007
        0.000506436345479
        0.000595122694391
        0.000445290381118
        0.000595122694391
        0.00110769572007
        0.000356583883714
        -0.000356340053006
        0.000395223542481
        0.000439434662453
        -0.000439434662453
        0.000611680523889
      )
    )

    (
      5.17079016248

      (
        0.00110769572007
        0.000506436345479
        0.000595122694391
        0.000445290381118
        0.000595122694391
        0.00114862979807
        0.000356583883714
        -0.000356340053006
        0.000395223542481
        0.000439434662453
        -0.000439434662453
        0.000611680523889
      )
    )

    (
      5.17155622489

      (
        0.00107187870181
        0.000555250326597
        0.000548607353945
        0.000507114449045
        0.000548607353945
        0.00110769572007
        0.000390954005688
        -0.000390686672822
        0.000433318032958
        0.000405088042638
        -0.000405088042638
        0.000563871008168
      )
    )

    (
      5.17395556876

      (
        0.00107187870181
        0.000585577581513
        0.000519708203437
        0.000534812567229
        0.000519708203437
        0.00110769572007
        0.000412025614469
        -0.000412025614469
        0.000424136367788
        0.00038374910099
        -0.00038374910099
        0.000534167809669
      )
    )

    (
      5.174472441

      (
        0.00110769572007
        0.000517864227441
        0.000559846825548
        0.000496342083515
        0.000559846825548
        0.00110769572007
        0.000382387521308
        -0.000382387521308
        0.000393627116081
        0.000413387194152
        -0.000413387194152
        0.000575423190505
      )
    )

    (
      5.18279801081

      (
        0.00110769572007
        0.000544443511399
        0.000558905278362
        0.000497244500533
        0.000558905278362
        0.00110769572007
        0.000383344883302
        -0.000383082753524
        0.000394342783401
        0.000412691961935
        -0.000412691961935
        0.000574455447078
      )
    )

    (
      5.18621780963

      (
        0.00107187870181
        0.000593515587351
        0.000512143996717
        0.000565567056273
        0.000512143996717
        0.00107187870181
        0.000417896730895
        -0.000417610974695
        0.000429885899652
        0.000378163740764
        -0.000378163740764
        0.000526393147448
      )
    )

    (
      5.18775235554

      (
        0.00107187870181
        0.000562382393052
        0.000541811135082
        0.000535899917907
        0.000541811135082
        0.00107187870181
        0.00039597572259
        -0.00039597572259
        0.000438883906329
        0.000400069759567
        -0.000400069759567
        0.000556885701182
      )
    )

    (
      5.18816010355

      (
        0.00107187870181
        0.00056131255656
        0.000569655560332
        0.000534880459804
        0.000542830593186
        0.00107187870181
        0.00039522244638
        -0.00039522244638
        0.000438049004625
        0.000401096789154
        -0.00040082252069
        0.000557933523208
      )
    )

    (
      5.1881719353

      (
        0.00107187870181
        0.00056131255656
        0.000569655560332
        0.000534880459804
        0.000542830593186
        0.00110769572007
        0.00039522244638
        -0.00039522244638
        0.000438049004625
        0.000401096789154
        -0.00040082252069
        0.000557933523208
      )
    )

    (
      5.19007356198

      (
        0.00107187870181
        0.000564700731498
        0.000566267385395
        0.000538109086256
        0.000539601966733
        0.00110769572007
        0.000397608074087
        -0.000397608074087
        0.000440693140484
        0.000398711161447
        -0.000398711161447
        0.000398438524266
      )
    )

    (
      5.19417321683

      (
        0.00107187870181
        0.00059582777668
        0.000535140340212
        0.000567770365066
        0.000509940687923
        0.00110769572007
        0.00041923788334
        -0.000419524752775
        0.000431560628356
        0.000376794482759
        -0.000376794482759
        0.00037653683212
      )
    )

    (
      5.19743930038

      (
        0.00110769572007
        0.000526580832711
        0.000578365328686
        0.000526580832711
        0.000551130220279
        0.00110769572007