// -*- C++ -*-
// File generated by PyFoam - sorry for the ugliness

FoamFile
{
 version 2.0;
 format ascii;
 class dictionary;
 location "constant";
 object RBCPath;
}

RBCPath1
{
  edges
    111
    (
      0
      0
      0
      0
      0
      0
      0
      0
      0
      0
      0
      0
      0
      0
      2
      2
      2
      2
      2
      2
      2
      2
      2
      2
      2
      2
      2
      2
      2
      2
      2
      2
      2
      2
      2
      2
      2
      9
      9
      9
      9
      9
      9
      11
      11
      11
      11
      11
      11
      11
      11
      11
      11
      11
      11
      11
      11
      11
      11
      10
      10
      10
      10
      10
      4
      4
      4
      4
      4
      4
      4
      4
      4
      4
      4
      4
      4
      4
      4
      4
      4
      4
      4
      4
      4
      4
      4
      4
      5
      5
      5
      5
      5
      5
      5
      5
      5
      5
      5
      5
      5
      5
      5
      5
      5
      5
      5
      5
      5
      5
      5
    );
  index 1;
  sCoords
    111
    (
      6.26926782688e-06
      9.30647981562e-06
      1.15282674727e-05
      1.52886219169e-05
      1.57275100714e-05
      2.18907260023e-05
      2.19067695427e-05
      2.50514639996e-05
      2.73052664101e-05
      2.8802507515e-05
      3.26600135205e-05
      3.6775470366e-05
      3.77855812416e-05
      3.83845455331e-05
      2.22044604925e-18
      1.32478945247e-06
      2.92819726288e-06
      4.58378388996e-06
      4.58864577825e-06
      5.20649923614e-06
      6.0479674705e-06
      8.53608337714e-06
      8.68086826734e-06
      1.02057924304e-05
      1.26266991055e-05
      1.35227100486e-05
      1.40667302716e-05
      1.48303804647e-05
      1.6941734047e-05
      1.94388130879e-05
      2.00292184579e-05
      2.01150983432e-05
      2.09205256252e-05
      2.44187665728e-05
      2.48530892596e-05
      2.51460917289e-05
      2.73625477509e-05
      2.22044604925e-18
      1.66892924993e-06
      1.93517247951e-06
      2.83751880893e-06
      3.46457960585e-06
      4.47674657269e-06
      2.22044604925e-18
      2.66280362389e-06
      3.06580890533e-06
      4.04592696247e-06
      4.08811164578e-06
      4.83006753496e-06
      8.92239213799e-06
      9.34441333322e-06
      1.00644405476e-05
      1.04468535357e-05
      1.20596661118e-05
      1.43407718386e-05
      1.58980224067e-05
      1.68705645968e-05
      1.71940657904e-05
      1.89286171763e-05
      4.5e-06
      4.21258454888e-06
      2.93332643108e-06
      2.54268130651e-06
      1.42699496482e-06
      2.22044604925e-18
      4.08200250627e-07
      1.12660402697e-06
      2.86888410738e-06
      3.85273358726e-06
      4.0131645268e-06
      9.25998493594e-06
      9.76798303171e-06
      1.02238841582e-05
      1.15401818461e-05
      1.18088045896e-05
      1.64698484233e-05
      1.83811920324e-05
      1.91671005085e-05
      1.93880229188e-05
      1.93944455557e-05
      2.04267066961e-05
      2.2638888513e-05
      2.43043974081e-05
      2.51288354774e-05
      2.54781680792e-05
      2.59592583802e-05
      2.65168518565e-05
      2.82842712475e-05
      2.22044604925e-18
      1.58308704369e-06
      2.46083038073e-06
      2.83935632886e-06
      2.22044604925e-18
      3.02902274575e-06
      5.49742061767e-06
      6.80826963439e-06
      7.73808405756e-06
      7.78229988034e-06
      9.83053194702e-06
      1.79885825847e-05
      2.00569089148e-05
      2.20983001857e-05
      2.2396677086e-05
      2.33991534194e-05
      2.62274908057e-05
      2.86581530653e-05
      3.29853105026e-05
      3.45853512805e-05
      3.53516707153e-05
      3.5921649949e-05
      3.81024327948e-05
    );
  times
    111
    (
      5.01404006648
      5.01678198552
      5.01878775987
      5.02218251384
      5.02257873109
      5.02814272833
      5.02815769601
      5.03109151161
      5.03319417716
      5.03454584899
      5.03802830896
      5.0417436405
      5.04268601474
      5.04324481331
      5.04475193764
      5.04703165171
      5.0497908157
      5.05252448783
      5.05253195535
      5.05348916395
      5.05479280744
      5.0588724666
      5.05910986431
      5.06194328287
      5.06643312048
      5.0681911999
      5.0692586319
      5.07076029789
      5.07487470493
      5.07937916704
      5.08037675842
      5.08052186725
      5.08194579308
      5.08807602814
      5.08883854388
      5.08935637736
      5.09327359744
      5.09513401796
      5.09944669057
      5.1001715199
      5.10263305474
      5.10453728918
      5.10740929176
      5.10746949654
      5.1123954191
      5.1131394973
      5.11509502535
      5.11517919208
      5.11667562851
      5.12443449392
      5.12529436985
      5.12676468359
      5.12748674868
      5.13052668183
      5.13463481873
      5.13724624458
      5.13894670977
      5.13951234335
      5.14278173766
      5.14477750951
      5.14547104251
      5.1485522779
      5.14945315233
      5.15202605862
      5.15512070521
      5.15573913339
      5.15683678437
      5.15969317144
      5.16129346425
      5.16154956186
      5.16993656019
      5.17079016248
      5.17155622489
      5.17395556876
      5.174472441
      5.18279801081
      5.18621780963
      5.18775235554
      5.18816010355
      5.1881719353
      5.19007356198
      5.19417321683
      5.19743930038
      5.19893520469
      5.19956165222
      5.20041941756
      5.20150363908
      5.20513795315
      5.20532575597
      5.20684779261
      5.20769168652
      5.20805561494
      5.2159879403
      5.21890015136
      5.22127335758
      5.22253365482
      5.22342761175
      5.22346886252
      5.22543810626
      5.23328154864
      5.23527011173
      5.23723277849
      5.23751964873
      5.23848346542
      5.24112213842
      5.24338980383
      5.24729625338
      5.24874073018
      5.24943254421
      5.24994710721
      5.25198164978
    );
}

RBCPath2
{
  edges
    111
    (
      0
      0
      0
      0
      0
      0
      0
      0
      0
      0
      0
      0
      0
      0
      0
      0
      0
      2
      2
      2
      2
      2
      2
      2
      2
      2
      2
      2
      2
      2
      2
      2
      2
      2
      2
      2
      2
      2
      2
      9
      9
      9
      9
      9
      11
      11
      11
      11
      11
      11
      11
      11
      11
      11
      11
      11
      11
      11
      11
      11
      11
      11
      10
      10
      10
      4
      4
      4
      4
      4
      4
      4
      4
      4
      4
      4
      4
      4
      4
      4
      4
      4
      4
      4
      4
      4
      4
      4
      4
      4
      4
      4
      5
      5
      5
      5
      5
      5
      5
      5
      5
      5
      5
      5
      5
      5
      5
      5
      5
      5
      5
    );
  index 2;
  sCoords
    111
    (
      5.99501496256e-06
      6.01105850301e-06
      9.15575295988e-06
      1.14095553704e-05
      1.29067964754e-05
      1.67643024808e-05
      2.08797593263e-05
      2.18898702019e-05
      2.24888344934e-05
      2.41042889603e-05
      2.662951848e-05
      2.96858326192e-05
      3.27139095345e-05
      3.27221812763e-05
      3.37824771519e-05
      3.5226517461e-05
      3.97455384569e-05
      2.22044604925e-18
      1.52492416301e-06
      3.94583083812e-06
      4.8418417813e-06
      5.38586200422e-06
      6.1495121974e-06
      8.26086577967e-06
      1.07579448206e-05
      1.13483501905e-05
      1.14342300759e-05
      1.22396573578e-05
      1.57378983055e-05
      1.61722209923e-05
      1.64652234616e-05
      1.86816794836e-05
      1.96034029801e-05
      2.18620744011e-05
      2.22223988269e-05
      2.34436033005e-05
      2.42922458067e-05
      2.56620777522e-05
      2.56935481406e-05
      2.22044604925e-18
      2.8971932619e-07
      9.94323350425e-07
      1.02464979672e-06
      1.55803973023e-06
      2.22044604925e-18
      4.22021195224e-07
      1.1420484096e-06
      1.52446139776e-06
      3.13727397384e-06
      5.41837970056e-06
      6.97563026876e-06
      7.94817245879e-06
      8.27167365245e-06
      1.00062250383e-05
      1.1077607862e-05
      1.14774084079e-05
      1.32568816125e-05
      1.38002766647e-05
      1.53522183113e-05
      1.73371963761e-05
      1.7736996922e-05
      1.83976872227e-05
      4.5e-06
      3.80726759314e-06
      3.6943075183e-06
      2.22044604925e-18
      5.07998095781e-07
      9.63899222218e-07
      2.28019691019e-06
      2.54881965367e-06
      7.20986348734e-06
      9.12120709645e-06
      9.90711557255e-06
      1.01280379828e-05
      1.01344606198e-05
      1.11667217601e-05
      1.3378903577e-05
      1.50444124722e-05
      1.58688505415e-05
      1.62181831433e-05
      1.66992734442e-05
      1.72568669206e-05
      1.90242863115e-05
      1.91156175295e-05
      1.99632819035e-05
      2.04290285638e-05
      2.06161896811e-05
      2.46956261959e-05
      2.60534270639e-05
      2.7149125124e-05
      2.77745930354e-05
      2.82617900176e-05
      2.22044604925e-18
      2.04823206669e-06
      1.02062827044e-05
      1.22746090344e-05
      1.43160003053e-05
      1.46143772057e-05
      1.56168535391e-05
      1.84451909254e-05
      2.08758531849e-05
      2.52030106223e-05
      2.68030514002e-05
      2.75693708349e-05
      2.81393500687e-05
      3.03201329145e-05
      3.22177001197e-05
      3.27008093119e-05
      3.33983497145e-05
      3.5558542608e-05
      3.84704101098e-05
    );
  times
    111
    (
      5.02814272833
      5.02815769601
      5.03109151161
      5.03319417716
      5.03454584899
      5.03802830896
      5.0417436405
      5.04268601474
      5.04324481331
      5.04475193764
      5.04703165171
      5.0497908157
      5.05252448783
      5.05253195535
      5.05348916395
      5.05479280744
      5.0588724666
      5.05910986431
      5.06194328287
      5.06643312048
      5.0681911999
      5.0692586319
      5.07076029789
      5.07487470493
      5.07937916704
      5.08037675842
      5.08052186725
      5.08194579308
      5.08807602814
      5.08883854388
      5.08935637736
      5.09327359744
      5.09513401796
      5.09944669057
      5.1001715199
      5.10263305474
      5.10453728918
      5.10740929176
      5.10746949654
      5.1123954191
      5.1131394973
      5.11509502535
      5.11517919208
      5.11667562851
      5.12443449392
      5.12529436985
      5.12676468359
      5.12748674868
      5.13052668183
      5.13463481873
      5.13724624458
      5.13894670977
      5.13951234335
      5.14278173766
      5.14477750951
      5.14547104251
      5.1485522779
      5.14945315233
      5.15202605862
      5.15512070521
      5.15573913339
      5.15683678437
      5.15969317144
      5.16129346425
      5.16154956186
      5.16993656019
      5.17079016248
      5.17155622489
      5.17395556876
      5.174472441
      5.18279801081
      5.18621780963
      5.18775235554
      5.18816010355
      5.1881719353
      5.19007356198
      5.19417321683
      5.19743930038
      5.19893520469
      5.19956165222
      5.20041941756
      5.20150363908
      5.20513795315
      5.20532575597
      5.20684779261
      5.20769168652
      5.20805561494
      5.2159879403
      5.21890015136
      5.22127335758
      5.22253365482
      5.22342761175
      5.22346886252
      5.22543810626
      5.23328154864
      5.23527011173
      5.23723277849
      5.23751964873
      5.23848346542
      5.24112213842
      5.24338980383
      5.24729625338
      5.24874073018
      5.24943254421
      5.24994710721
      5.25198164978
      5.25375196875
      5.25418810765
      5.25481782969
      5.25683316303
      5.25954976473
    );
}

RBCPath3
{
  edges
    116
    (
      0
      0
      0
      0
      0
      0
      0
      0
      0
      0
      0
      0
      0
      0
      0
      0
      0
      1
      1
      1
      1
      1
      1
      1
      1
      1
      1
      1
      1
      1
      1
      1
      1
      1
      1
      1
      1
      1
      1
      6
      6
      6
      6
      6
      8
      8
      8
      8
      8
      8
      8
      8
      8
      8
      8
      8
      8
      8
      8
      8
      8
      8
      8
      8
      8
      8
      7
      7
      7
      7
      7
      7
      3
      3
      3
      3
      3
      3
      3
      3
      3
      3
      3
      3
      3
      3
      3
      3
      3
      3
      3
      3
      3
      3
      3
      3
      3
      3
      5
      5
      5
      5
      5
      5
      5
      5
      5
      5
      5
      5
      5
      5
      5
      5
      5
      5
    );
  index 3;
  sCoords
    116
    (
      3.41711284531e-06
      4.42722372091e-06
      5.02618801245e-06
      6.64164247933e-06
      9.16687199904e-06
      1.22231861382e-05
      1.52512630535e-05
      1.52595347953e-05
      1.63198306709e-05
      1.776387098e-05
      2.2282891976e-05
      2.2537353519e-05
      2.5675919136e-05
      3.06492930332e-05
      3.25967100825e-05
      3.37790999466e-05
      3.54424889393e-05
      2.22044604925e-18
      2.35742956663e-06
      2.84213945579e-06
      2.91264496241e-06
      3.64179828169e-06
      6.75017941853e-06
      7.15677486315e-06
      7.43494630616e-06
      9.53921106372e-06
      1.06340728225e-05
      1.31412802471e-05
      1.35829085868e-05
      1.50852734799e-05
      1.63483221911e-05
      1.81589408441e-05
      1.81923538152e-05
      2.09103518911e-05
      2.13201570258e-05
      2.24740643783e-05
      2.25237290241e-05
      2.34145835254e-05
      2.77948507319e-05
      2.22044604925e-18
      6.19579180898e-07
      9.0179434611e-07
      2.08776636893e-06
      3.61271775638e-06
      2.22044604925e-18
      6.27012108787e-07
      8.35578038068e-07
      2.14766294498e-06
      2.9387355717e-06
      3.21119239135e-06
      4.41927369504e-06
      4.78141780264e-06
      5.81570495778e-06
      6.96544252289e-06
      7.19271276787e-06
      7.60086610294e-06
      8.76226124855e-06
      9.40689658658e-06
      9.50773012318e-06
      1.28155444299e-05
      1.31529081515e-05
      1.34556740515e-05
      1.44953530147e-05
      1.47145773294e-05
      1.79917473667e-05
      1.93403203504e-05
      4.5e-06
      4.33854168844e-06
      4.33386551448e-06
      3.58229996473e-06
      1.95224409766e-06
      5.82041201483e-07
      2.22044604925e-18
      3.1225689372e-07
      7.37165114125e-07
      1.34804915705e-06
      3.42073223571e-06
      3.52783792378e-06
      4.32048926258e-06
      4.76421640115e-06
      4.96926496231e-06
      9.43858316055e-06
      1.13073019455e-05
      1.28414785237e-05
      1.36104579704e-05
      1.41102220359e-05
      1.41332831616e-05
      1.51454804498e-05
      1.92325793523e-05
      2.02180094054e-05
      2.12749331634e-05
      2.14280862855e-05
      2.19711305095e-05
      2.34578407379e-05
      2.46684927249e-05
      2.67540521159e-05
      2.75870347452e-05
      2.79865800389e-05
      2.22044604925e-18
      2.1807828458e-06
      4.07835005098e-06
      4.56145924317e-06
      5.25899964581e-06
      7.41919253936e-06
      1.03310600411e-05
      1.18606499313e-05
      1.20253667565e-05
      1.21970622629e-05
      2.0778402112e-05
      2.38064765101e-05
      2.52723838784e-05
      2.55485420518e-05
      3.5395936411e-05
      3.60825064713e-05
      3.71797934989e-05
      3.81815737046e-05
    );
  times
    116
    (
      5.0417436405
      5.04268601474
      5.04324481331
      5.04475193764
      5.04703165171
      5.0497908157
      5.05252448783
      5.05253195535
      5.05348916395
      5.05479280744
      5.0588724666
      5.05910986431
      5.06194328287
      5.06643312048
      5.0681911999
      5.0692586319
      5.07076029789
      5.07487470493
      5.07937916704
      5.08037675842
      5.08052186725
      5.08194579308
      5.08807602814
      5.08883854388
      5.08935637736
      5.09327359744
      5.09513401796
      5.09944669057
      5.1001715199
      5.10263305474
      5.10453728918
      5.10740929176
      5.10746949654
      5.1123954191
      5.1131394973
      5.11509502535
      5.11517919208
      5.11667562851
      5.12443449392
      5.12529436985
      5.12676468359
      5.12748674868
      5.13052668183
      5.13463481873
      5.13724624458
      5.13894670977
      5.13951234335
      5.14278173766
      5.14477750951
      5.14547104251
      5.1485522779
      5.14945315233
      5.15202605862
      5.15512070521
      5.15573913339
      5.15683678437
      5.15969317144
      5.16129346425
      5.16154956186
      5.16993656019
      5.17079016248
      5.17155622489
      5.17395556876
      5.174472441
      5.18279801081
      5.18621780963
      5.18775235554
      5.18816010355
      5.1881719353
      5.19007356198
      5.19417321683
      5.19743930038
      5.19893520469
      5.19956165222
      5.20041941756
      5.20150363908
      5.20513795315
      5.20532575597
      5.20684779261
      5.20769168652
      5.20805561494
      5.2159879403
      5.21890015136
      5.22127335758
      5.22253365482
      5.22342761175
      5.22346886252
      5.22543810626
      5.23328154864
      5.23527011173
      5.23723277849
      5.23751964873
      5.23848346542
      5.24112213842
      5.24338980383
      5.24729625338
      5.24874073018
      5.24943254421
      5.24994710721
      5.25198164978
      5.25375196875
      5.25418810765
      5.25481782969
      5.25683316303
      5.25954976473
      5.26097678244
      5.26112548467
      5.26128048708
      5.26902750614
      5.27176117599
      5.27308456051
      5.27333386921
      5.28222385062
      5.2828436689
      5.28383427219
      5.2847688744
    );
}

RBCPath29
{
  edges
    136
    (
      0
      0
      0
      0
      0
      0
      0
      0
      0
      0
      0
      0
      0
      0
      0
      0
      0
      0
      0
      1
      1
      1
      1
      1
      1
      1
      1
      1
      1
      1
      1
      1
      1
      1
      1
      1
      1
      1
      1
      1
      1
      1
      1
      1
      1
      1
      1
      1
      1
      1
      6
      6
      6
      6
      6
      8
      8
      8
      8
      8
      8
      8
      8
      8
      8
      8
      8
      8
      8
      8
      8
      8
      8
      8
      8
      8
      8
      8
      8
      8
      8
      7
      7
      7
      7
      3
      3
      3
      3
      3
      3
      3
      3
      3
      3
      3
      3
      3
      3
      3
      3
      3
      3
      3
      3
      3
      3
      3
      3
      3
      3
      3
      3
      3
      3
      5
      5
      5
      5
      5
      5
      5
      5
      5
      5
      5
      5
      5
      5
      5
      5
      5
      5
      5
      5
      5
    );
  index 29;
  sCoords
    136
    (
      2.2448944049e-06
      4.0887936411e-06
      4.3008695304e-06
      5.47760913407e-06
      5.53083379684e-06
      9.19152736799e-06
      1.16686756933e-05
      1.6128191105e-05
      1.74334974339e-05
      2.28569961453e-05
      2.36371880666e-05
      2.45687913361e-05
      2.55453513275e-05
      2.84150725939e-05
      2.98921794626e-05
      3.30275404252e-05
      3.41698195212e-05
      3.56822458908e-05
      3.96424859026e-05
      2.22044604925e-18
      6.65800673782e-07
      1.41740992473e-06
      2.50730356113e-06
      2.67211026132e-06
      2.91202365531e-06
      3.84577913229e-06
      5.49926614124e-06
      6.40066780358e-06
      1.02368799608e-05
      1.03505670398e-05
      1.06103646187e-05
      1.11466795113e-05
      1.51832508758e-05
      1.6301383143e-05
      1.71245141654e-05
      1.72368246718e-05
      1.74724348581e-05
      1.76876745208e-05
      1.94557036137e-05
      1.99513540585e-05
      2.0742877179e-05
      2.17605062622e-05
      2.19897747942e-05
      2.3168899945e-05
      2.55458487742e-05
      2.55743960484e-05
      2.58976171503e-05
      2.59006354481e-05
      2.76990795047e-05
      2.78665668558e-05
      2.22044604925e-18
      3.99507735677e-07
      2.42130576311e-06
      2.58560099946e-06
      3.24711669228e-06
      2.22044604925e-18
      4.89746881826e-07
      1.50845478697e-06
      1.93741773698e-06
      3.37231254954e-06
      3.70324627516e-06
      4.11659114983e-06
      5.71379212685e-06
      6.49607767851e-06
      7.00076093016e-06
      8.35993544107e-06
      9.75719867408e-06
      9.97047876769e-06
      1.07212281241e-05
      1.16566642953e-05
      1.25366733302e-05
      1.25489541682e-05
      1.44148710672e-05
      1.52420525208e-05
      1.60701228922e-05
      1.62572528365e-05
      1.62831134083e-05
      1.76296353433e-05
      1.81386677855e-05
      1.84182679375e-05
      1.98711544147e-05
      4.5e-06
      3.81316677826e-06
      7.57811281571e-07
      4.29797812449e-08
      2.22044604925e-18
      2.11449250831e-06
      4.74988244319e-06
      4.90836416927e-06
      5.01186354989e-06
      5.92398746091e-06
      6.30363666385e-06
      7.42238106052e-06
      7.94550292222e-06
      9.76905530413e-06
      1.04767824905e-05
      1.12943503865e-05
      1.19259968711e-05
      1.19454031946e-05
      1.30137342594e-05
      1.3140088322e-05
      1.3499992006e-05
      1.59310263069e-05
      1.59907676857e-05
      1.7041790625e-05
      1.83173926802e-05
      1.86565188278e-05
      1.93167828104e-05
      1.95178248971e-05
      2.38441291923e-05
      2.43842731992e-05
      2.44075378406e-05
      2.49335010779e-05
      2.56079700575e-05
      2.69010486455e-05
      2.22044604925e-18
      1.21236134192e-06
      3.4303227433e-06
      3.994718604e-06
      4.83766297111e-06
      1.30892239509e-05
      1.38498426767e-05
      1.40205480017e-05
      1.75655973346e-05
      1.82705822256e-05
      1.94383947539e-05
      2.25277092637e-05
      2.44604099008e-05
      2.46848332397e-05
      2.51540687853e-05
      2.72586040435e-05
      2.77867089095e-05
      3.31592348589e-05
      3.4889889702e-05
      3.90332240122e-05
      3.91192210026e-05
    );
  times
    136
    (
      5.40980888043
      5.41147350656
      5.41166496337
      5.41272729446
      5.41277534435
      5.41608012698
      5.41831643455
      5.42234237356
      5.42352077148
      5.42841697051
      5.42914484384
      5.43001397508
      5.43092504831
      5.43351576092
      5.43484925607
      5.43777436407
      5.43884004351
      5.44025104866
      5.44394572046
      5.44427926016
      5.44548546683
      5.44683263493
      5.44879579387
      5.4490731135
      5.44947681489
      5.45105083448
      5.45370213228
      5.45525884604
      5.46188395502
      5.46207125433
      5.46255650821
      5.46356015643
      5.47145212557
      5.4734881616
      5.47497609034
      5.47517910787
      5.47560986231
      5.47603199744
      5.47949951441
      5.48051620072
      5.48201532647
      5.48380023392
      5.48420517296
      5.48631012553
      5.49055341095
      5.4906049721
      5.49121646394
      5.49122217417
      5.49503395156
      5.49538830312
      5.49626490816
      5.49734129517
      5.50321815647
      5.50370598286
      5.50550924265
      5.50865763455
      5.50980079499
      5.5121954486
      5.51317521583
      5.51645256861
      5.51720722102
      5.51808155424
      5.52146005474
      5.5231126733
      5.5241999112
      5.52718107978
      5.53034659511
      5.53079099057
      5.53245938852
      5.53452975556
      5.53647744773
      5.53650462847
      5.54068864292
      5.54254346248
      5.54439731994
      5.54484273179
      5.54490008865
      5.54786025402
      5.54897930018
      5.54959042518
      5.55297301776
      5.55327801804
      5.55492297118
      5.56174672136
      5.56347574953
      5.56357987148
      5.56737129057
      5.57209671176
      5.57240578008
      5.57261636047
      5.57428065492
      5.57497337666
      5.57695681864
      5.57790461947
      5.58145542166
      5.58280274959
      5.58435918557
      5.58562325691
      5.58566109862
      5.58762681043
      5.5878589404
      5.58852013347
      5.59308436632
      5.5931914864
      5.59507603715
      5.59756369417
      5.59821137153
      5.59956849001
      5.59998087084
      5.60927287947
      5.61034819938
      5.61039451468
      5.61139734447
      5.6126932889
      5.6153138016
      5.61811699735
      5.61921148686
      5.62121380696
      5.62172332943
      5.62248431853
      5.62993362146
      5.63062028903
      5.63077439753
      5.63397477943
      5.63461122216
      5.63562792269
      5.6383174877
      5.64006228151
      5.64026488529
      5.64068849941
      5.64258842122
      5.64306518109
      5.64807743289
      5.64969203241
      5.65355752046
      5.65363775061
    );
}

RBCPath28
{
  edges
    130
    (
      0
      0
      0
      0
      0
      0
      0
      0
      0
      0
      0
      0
      0
      0
      0
      0
      0
      0
      2
      2
      2
      2
      2
      2
      2
      2
      2
      2
      2
      2
      2
      2
      2
      2
      2
      2
      2
      2
      2
      2
      2
      2
      2
      2
      2
      2
      2
      2
      9
      9
      9
      9
      9
      9
      9
      11
      11
      11
      11
      11
      11
      11
      11
      11
      11
      11
      11
      11
      11
      11
      11
      11
      11
      11
      10
      10
      10
      10
      10
      10
      10
      10
      4
      4
      4
      4
      4
      4
      4
      4
      4
      4
      4
      4
      4
      4
      4
      4
      4
      4
      4
      4
      4
      4
      4
      4
      4
      4
      4
      4
      4
      4
      5
      5
      5
      5
      5
      5
      5
      5
      5
      5
      5
      5
      5
      5
      5
      5
      5
      5
    );
  index 28;
  sCoords
    130
    (
      2.86511613455e-06
      3.18452617972e-06
      4.07387028753e-06
      6.90452804388e-06
      1.0655113047e-05
      1.36702850019e-05
      1.66995430774e-05
      1.85434423136e-05
      1.87555182029e-05
      1.99322578066e-05
      1.99854824694e-05
      2.36461760405e-05
      2.61233243658e-05
      3.05828397776e-05
      3.18881461065e-05
      3.73116448179e-05
      3.80918367391e-05
      3.90234400086e-05
      2.22044604925e-18
      1.31072160021e-06
      1.98186836667e-06
      3.53529006716e-06
      4.0538408369e-06
      4.77752895695e-06
      6.57532558438e-06
      6.73762323215e-06
      7.37176482111e-06
      8.07201352711e-06
      9.09783797408e-06
      9.23190170527e-06
      9.42706176078e-06
      1.01896445917e-05
      1.14713529031e-05
      1.22900856918e-05
      1.57744731839e-05
      1.58679941348e-05
      1.61311600301e-05
      1.67034362983e-05
      2.13929558486e-05
      2.24690821101e-05
      2.32495083369e-05
      2.33559920708e-05
      2.3584610705e-05
      2.3824310733e-05
      2.57932630056e-05
      2.6393306639e-05
      2.7217407907e-05
      2.8085741075e-05
      2.22044604925e-18
      8.04960249068e-07
      2.42764578015e-06
      2.44761137572e-06
      2.6957264587e-06
      2.69804340279e-06
      4.34694546505e-06
      2.22044604925e-18
      4.91154973534e-07
      1.08890060589e-06
      4.5607206461e-06
      4.85352029402e-06
      5.86507304713e-06
      7.50329870636e-06
      8.07047062161e-06
      9.34549560747e-06
      9.89242059983e-06
      1.17219022238e-05
      1.21424975644e-05
      1.2592234815e-05
      1.43300591357e-05
      1.51788701691e-05
      1.57498091347e-05
      1.73462396151e-05
      1.8963252752e-05
      1.91671049818e-05
      4.5e-06
      3.76067451429e-06
      3.06515607358e-06
      3.05544986716e-06
      1.5375166629e-06
      8.64600202936e-07
      1.93314015879e-07
      2.05350325191e-08
      2.22044604925e-18
      1.35973001023e-06
      1.87375556735e-06
      2.15243964575e-06
      3.88644863229e-06
      4.03481018479e-06
      4.87805791823e-06
      8.09707590821e-06
      8.99304033158e-06
      9.04708634528e-06
      1.10186480982e-05
      1.34758968135e-05
      1.36505014269e-05
      1.37739468561e-05
      1.46984032116e-05
      1.5083185492e-05
      1.61546998836e-05
      1.66776671638e-05
      1.8869958848e-05
      1.96860165874e-05
      2.06287281603e-05
      2.13954920909e-05
      2.14179245407e-05
      2.2519957327e-05
      2.26437722958e-05
      2.29964436898e-05
      2.54843335863e-05
      2.55400367004e-05
      2.65200149317e-05
      2.79253883413e-05
      2.22044604925e-18
      1.45466639381e-06
      1.89668861441e-06
      1.18565947631e-05
      1.30092072795e-05
      1.30605105401e-05
      1.41713408045e-05
      1.56068529025e-05
      1.85095836082e-05
      2.17294177744e-05
      2.29417791163e-05
      2.51597405177e-05
      2.57241363784e-05
      2.65670807455e-05
      3.48186417253e-05
      3.55792604511e-05
      3.5749965776e-05
      3.92950151089e-05
    );
  times
    130
    (
      5.39730987024
      5.39760786109
      5.39841073872
      5.40096618576
      5.40435212013
      5.40707414198
      5.40980888043
      5.41147350656
      5.41166496337
      5.41272729446
      5.41277534435
      5.41608012698
      5.41831643455
      5.42234237356
      5.42352077148
      5.42841697051
      5.42914484384
      5.43001397508
      5.43092504831
      5.43351576092
      5.43484925607
      5.43777436407
      5.43884004351
      5.44025104866
      5.44394572046
      5.44427926016
      5.44548546683