// -*- C++ -*-
// File generated by PyFoam - sorry for the ugliness

FoamFile
{
 version 2.0;
 format ascii;
 class dictionary;
 location "constant";
 object RBCPath;
}

RBCPath0000
{
  edges
    (
      0
      0
    );
  index 0;
  sCoords
    (
      0
      0.00012
    );
  times
    (
      0.0
      0.12
    );
}

RBCPath0001
{
  edges
    (
      1
      1
    );
  index 1;
  sCoords
    (
      0
      0.00012
    );
  times
    (
      0.0061133735
      0.1261133735
    );
}

RBCPath0002
{
  edges
    (
      2
      2
    );
  index 2;
  sCoords
    (
      0
      0.00012
    );
  times
    (
      0.012226747
      0.132226747
    );
}

RBCPath0003
{
  edges
    (
      3
      3
    );
  index 3;
  sCoords
    (
      0
      0.00012
    );
  times
    (
      0.0183401205
      0.1383401205
    );
}

RBCPath0004
{
  edges
    (
      0
      0
    );
  index 4;
  sCoords
    (
      0
      0.00012
    );
  times
    (
      0.024453494
      0.144453494
    );
}

RBCPath0005
{
  edges
    (
      1
      1
    );
  index 5;
  sCoords
    (
      0
      0.00012
    );
  times
    (
      0.0305668675
      0.1505668675
    );
}

RBCPath0006
{
  edges
    (
      2
      2
    );
  index 6;
  sCoords
    (
      0
      0.00012
    );
  times
    (
      0.036680241
      0.156680241
    );
}

RBCPath0007
{
  edges
    (
      3
      3
    );
  index 7;
  sCoords
    (
      0
      0.00012
    );
  times
    (
      0.0427936145
      0.1627936145
    );
}

RBCPath0008
{
  edges
    (
      0
      0
    );
  index 8;
  sCoords
    (
      0
      0.00012
    );
  times
    (
      0.048906988
      0.168906988
    );
}

RBCPath0009
{
  edges
    (
      1
      1
    );
  index 9;
  sCoords
    (
      0
      0.00012
    );
  times
    (
      0.0550203615
      0.1750203615
    );
}

RBCPath0010
{
  edges
    (
      2
      2
    );
  index 10;
  sCoords
    (
      0
      0.00012
    );
  times
    (
      0.061133735
      0.181133735
    );
}

RBCPath0011
{
  edges
    (
      3
      3
    );
  index 11;
  sCoords
    (
      0
      0.00012
    );
  times
    (
      0.0672471085
      0.1872471085
    );
}

RBCPath0012
{
  edges
    (
      0
      0
    );
  index 12;
  sCoords
    (
      0
      0.00012
    );
  times
    (
      0.073360482
      0.193360482
    );
}

RBCPath0013
{
  edges
    (
      1
      1
    );
  index 13;
  sCoords
    (
      0
      0.00012
    );
  times
    (
      0.0794738555
      0.1994738555
    );
}

RBCPath0014
{
  edges
    (
      2
      2
    );
  index 14;
  sCoords
    (
      0
      0.00012
    );
  times
    (
      0.085587229
      0.205587229
    );
}

RBCPath0015
{
  edges
    (
      3
      3
    );
  index 15;
  sCoords
    (
      0
      0.00012
    );
  times
    (
      0.0917006025
      0.2117006025
    );
}

RBCPath0016
{
  edges
    (
      0
      0
    );
  index 16;
  sCoords
    (
      0
      0.00012
    );
  times
    (
      0.097813976
      0.217813976
    );
}

RBCPath0017
{
  edges
    (
      1
      1
    );
  index 17;
  sCoords
    (
      0
      0.00012
    );
  times
    (
      0.1039273495
      0.2239273495
    );
}

RBCPath0018
{
  edges
    (
      2
      2
    );
  index 18;
  sCoords
    (
      0
      0.00012
    );
  times
    (
      0.110040723
      0.230040723
    );
}

RBCPath0019
{
  edges
    (
      3
      3
    );
  index 19;
  sCoords
    (
      0
      0.00012
    );
  times
    (
      0.1161540965
      0.2361540965
    );
}

RBCPath0020
{
  edges
    (
      0
      0
    );
  index 20;
  sCoords
    (
      0
      0.00012
    );
  times
    (
      0.12226747
      0.24226747
    );
}

RBCPath0021
{
  edges
    (
      1
      1
    );
  index 21;
  sCoords
    (
      0
      0.00012
    );
  times
    (
      0.1283808435
      0.2483808435
    );
}

RBCPath0022
{
  edges
    (
      2
      2
    );
  index 22;
  sCoords
    (
      0
      0.00012
    );
  times
    (
      0.134494217
      0.254494217
    );
}

RBCPath0023
{
  edges
    (
      3
      3
    );
  index 23;
  sCoords
    (
      0
      0.00012
    );
  times
    (
      0.1406075905
      0.2606075905
    );
}

RBCPath0024
{
  edges
    (
      0
      0
    );
  index 24;
  sCoords
    (
      0
      0.00012
    );
  times
    (
      0.146720964
      0.266720964
    );
}

RBCPath0025
{
  edges
    (
      1
      1
    );
  index 25;
  sCoords
    (
      0
      0.00012
    );
  times
    (
      0.1528343375
      0.2728343375
    );
}

RBCPath0026
{
  edges
    (
      2
      2
    );
  index 26;
  sCoords
    (
      0
      0.00012
    );
  times
    (
      0.158947711
      0.278947711
    );
}

RBCPath0027
{
  edges
    (
      3
      3
    );
  index 27;
  sCoords
    (
      0
      0.00012
    );
  times
    (
      0.1650610845
      0.2850610845
    );
}

RBCPath0028
{
  edges
    (
      0
      0
    );
  index 28;
  sCoords
    (
      0
      0.00012
    );
  times
    (
      0.171174458
      0.291174458
    );
}

RBCPath0029
{
  edges
    (
      1
      1
    );
  index 29;
  sCoords
    (
      0
      0.00012
    );
  times
    (
      0.1772878315
      0.2972878315
    );
}

RBCPath0030
{
  edges
    (
      2
      2
    );
  index 30;
  sCoords
    (
      0
      0.00012
    );
  times
    (
      0.183401205
      0.303401205
    );
}

RBCPath0031
{
  edges
    (
      3
      3
    );
  index 31;
  sCoords
    (
      0
      0.00012
    );
  times
    (
      0.1895145785
      0.3095145785
    );
}

RBCPath0032
{
  edges
    (
      0
      0
    );
  index 32;
  sCoords
    (
      0
      0.00012
    );
  times
    (
      0.195627952
      0.315627952
    );
}

RBCPath0033
{
  edges
    (
      1
      1
    );
  index 33;
  sCoords
    (
      0
      0.00012
    );
  times
    (
      0.2017413255
      0.3217413255
    );
}

RBCPath0034
{
  edges
    (
      2
      2
    );
  index 34;
  sCoords
    (
      0
      0.00012
    );
  times
    (
      0.207854699
      0.327854699
    );
}

RBCPath0035
{
  edges
    (
      3
      3
    );
  index 35;
  sCoords
    (
      0
      0.00012
    );
  times
    (
      0.2139680725
      0.3339680725
    );
}

RBCPath0036
{
  edges
    (
      0
      0
    );
  index 36;
  sCoords
    (
      0
      0.00012
    );
  times
    (
      0.220081446
      0.340081446
    );
}

RBCPath0037
{
  edges
    (
      1
      1
    );
  index 37;
  sCoords
    (
      0
      0.00012
    );
  times
    (
      0.2261948195
      0.3461948195
    );
}

RBCPath0038
{
  edges
    (
      2
      2
    );
  index 38;
  sCoords
    (
      0
      0.00012
    );
  times
    (
      0.232308193
      0.352308193
    );
}

RBCPath0039
{
  edges
    (
      3
      3
    );
  index 39;
  sCoords
    (
      0
      0.00012
    );
  times
    (
      0.2384215665
      0.3584215665
    );
}

RBCPath0040
{
  edges
    (
      0
      0
    );
  index 40;
  sCoords
    (
      0
      0.00012
    );
  times
    (
      0.24453494
      0.36453494
    );
}

RBCPath0041
{
  edges
    (
      1
      1
    );
  index 41;
  sCoords
    (
      0
      0.00012
    );
  times
    (
      0.2506483135
      0.3706483135
    );
}

RBCPath0042
{
  edges
    (
      2
      2
    );
  index 42;
  sCoords
    (
      0
      0.00012
    );
  times
    (
      0.256761687
      0.376761687
    );
}

RBCPath0043
{
  edges
    (
      3
      3
    );
  index 43;
  sCoords
    (
      0
      0.00012
    );
  times
    (
      0.2628750605
      0.3828750605
    );
}

RBCPath0044
{
  edges
    (
      0
      0
    );
  index 44;
  sCoords
    (
      0
      0.00012
    );
  times
    (
      0.268988434
      0.388988434
    );
}

RBCPath0045
{
  edges
    (
      1
      1
    );
  index 45;
  sCoords
    (
      0
      0.00012
    );
  times
    (
      0.2751018075
      0.3951018075
    );
}

RBCPath0046
{
  edges
    (
      2
      2
    );
  index 46;
  sCoords
    (
      0
      0.00012
    );
  times
    (
      0.281215181
      0.401215181
    );
}

RBCPath0047
{
  edges
    (
      3
      3
    );
  index 47;
  sCoords
    (
      0
      0.00012
    );
  times
    (
      0.2873285545
      0.4073285545
    );
}

RBCPath0048
{
  edges
    (
      0
      0
    );
  index 48;
  sCoords
    (
      0
      0.00012
    );
  times
    (
      0.293441928
      0.413441928
    );
}

RBCPath0049
{
  edges
    (
      1
      1
    );
  index 49;
  sCoords
    (
      0
      0.00012
    );
  times
    (
      0.2995553015
      0.4195553015
    );
}

RBCPath0050
{
  edges
    (
      2
      2
    );
  index 50;
  sCoords
    (
      0
      0.00012
    );
  times
    (
      0.305668675
      0.425668675
    );
}

RBCPath0051
{
  edges
    (
      3
      3
    );
  index 51;
  sCoords
    (
      0
      0.00012
    );
  times
    (
      0.3117820485
      0.4317820485
    );
}

RBCPath0052
{
  edges
    (
      0
      0
    );
  index 52;
  sCoords
    (
      0
      0.00012
    );
  times
    (
      0.317895422
      0.437895422
    );
}

RBCPath0053
{
  edges
    (
      1
      1
    );
  index 53;
  sCoords
    (
      0
      0.00012
    );
  times
    (
      0.3240087955
      0.4440087955
    );
}

RBCPath0054
{
  edges
    (
      2
      2
    );
  index 54;
  sCoords
    (
      0
      0.00012
    );
  times
    (
      0.330122169
      0.450122169
    );
}

RBCPath0055
{
  edges
    (
      3
      3
    );
  index 55;
  sCoords
    (
      0
      0.00012
    );
  times
    (
      0.3362355425
      0.4562355425
    );
}

RBCPath0056
{
  edges
    (
      0
      0
    );
  index 56;
  sCoords
    (
      0
      0.00012
    );
  times
    (
      0.342348916
      0.462348916
    );
}

RBCPath0057
{
  edges
    (
      1
      1
    );
  index 57;
  sCoords
    (
      0
      0.00012
    );
  times
    (
      0.3484622895
      0.4684622895
    );
}

RBCPath0058
{
  edges
    (
      2
      2
    );
  index 58;
  sCoords
    (
      0
      0.00012
    );
  times
    (
      0.354575663
      0.474575663
    );
}

RBCPath0059
{
  edges
    (
      3
      3
    );
  index 59;
  sCoords
    (
      0
      0.00012
    );
  times
    (
      0.3606890365
      0.4806890365
    );
}

RBCPath0060
{
  edges
    (
      0
      0
    );
  index 60;
  sCoords
    (
      0
      0.00012
    );
  times
    (
      0.36680241
      0.48680241
    );
}

RBCPath0061
{
  edges
    (
      1
      1
    );
  index 61;
  sCoords
    (
      0
      0.00012
    );
  times
    (
      0.3729157835
      0.4929157835
    );
}

RBCPath0062
{
  edges
    (
      2
      2
    );
  index 62;
  sCoords
    (
      0
      0.00012
    );
  times
    (
      0.379029157
      0.499029157
    );
}

RBCPath0063
{
  edges
    (
      3
      3
    );
  index 63;
  sCoords
    (
      0
      0.00012
    );
  times
    (
      0.3851425305
      0.5051425305
    );
}

RBCPath0064
{
  edges
    (
      0
      0
    );
  index 64;
  sCoords
    (
      0
      0.00012
    );
  times
    (
      0.391255904
      0.511255904
    );
}

RBCPath0065
{
  edges
    (
      1
      1
    );
  index 65;
  sCoords
    (
      0
      0.00012
    );
  times
    (
      0.3973692775
      0.5173692775
    );
}

RBCPath0066
{
  edges
    (
      2
      2
    );
  index 66;
  sCoords
    (
      0
      0.00012
    );
  times
    (
      0.403482651
      0.523482651
    );
}

RBCPath0067
{
  edges
    (
      3
      3
    );
  index 67;
  sCoords
    (
      0
      0.00012
    );
  times
    (
      0.4095960245
      0.5295960245
    );
}

RBCPath0068
{
  edges
    (
      0
      0
    );
  index 68;
  sCoords
    (
      0
      0.00012
    );
  times
    (
      0.415709398
      0.535709398
    );
}

RBCPath0069
{
  edges
    (
      1
      1
    );
  index 69;
  sCoords
    (
      0
      0.00012
    );
  times
    (
      0.4218227715
      0.5418227715
    );
}

RBCPath0070
{
  edges
    (
      2
      2
    );
  index 70;
  sCoords
    (
      0
      0.00012
    );
  times
    (
      0.427936145
      0.547936145
    );
}

RBCPath0071
{
  edges
    (
      3
      3
    );
  index 71;
  sCoords
    (
      0
      0.00012
    );
  times
    (
      0.4340495185
      0.5540495185
    );
}

RBCPath0072
{
  edges
    (
      0
      0
    );
  index 72;
  sCoords
    (
      0
      0.00012
    );
  times
    (
      0.440162892
      0.560162892
    );
}

RBCPath0073
{
  edges
    (
      1
      1
    );
  index 73;
  sCoords
    (
      0
      0.00012
    );
  times
    (
      0.4462762655
      0.5662762655
    );
}

RBCPath0074
{
  edges
    (
      2
      2
    );
  index 74;
  sCoords
    (
      0
      0.00012
    );
  times
    (
      0.452389639
      0.572389639
    );
}

RBCPath0075
{
  edges
    (
      3
      3
    );
  index 75;
  sCoords
    (
      0
      0.00012
    );
  times
    (
      0.4585030125
      0.5785030125
    );
}

RBCPath0076
{
  edges
    (
      0
      0
    );
  index 76;
  sCoords
    (
      0
      0.00012
    );
  times
    (
      0.464616386
      0.584616386
    );
}

RBCPath0077
{
  edges
    (
      1
      1
    );
  index 77;
  sCoords
    (
      0
      0.00012
    );
  times
    (
      0.4707297595
      0.5907297595
    );
}

RBCPath0078
{
  edges
    (
      2
      2
    );
  index 78;
  sCoords
    (
      0
      0.00012
    );
  times
    (
      0.476843133
      0.596843133
    );
}

RBCPath0079
{
  edges
    (
      3
      3
    );
  index 79;
  sCoords
    (
      0
      0.00012
    );
  times
    (
      0.4829565065
      0.6029565065
    );
}

RBCPath0080
{
  edges
    (
      0
      0
    );
  index 80;
  sCoords
    (
      0
      0.00012
    );
  times
    (
      0.48906988
      0.60906988
    );
}

RBCPath0081
{
  edges
    (
      1
      1
    );
  index 81;
  sCoords
    (
      0
      0.00012
    );
  times
    (
      0.4951832535
      0.6151832535
    );
}

RBCPath0082
{
  edges
    (
      2
      2
    );
  index 82;
  sCoords
    (
      0
      0.00012
    );
  times
    (
      0.501296627
      0.621296627
    );
}

RBCPath0083
{
  edges
    (
      3
      3
    );
  index 83;
  sCoords
    (
      0
      0.00012
    );
  times
    (
      0.5074100005
      0.6274100005
    );
}

RBCPath0084
{
  edges
    (
      0
      0
    );
  index 84;
  sCoords
    (
      0
      0.00012
    );
  times
    (
      0.513523374
      0.633523374
    );
}

RBCPath0085
{
  edges
    (
      1
      1
    );
  index 85;
  sCoords
    (
      0
      0.00012
    );
  times
    (
      0.5196367475
      0.6396367475
    );
}

RBCPath0086
{
  edges
    (
      2
      2
    );
  index 86;
  sCoords
    (
      0
      0.00012
    );
  times
    (
      0.525750121
      0.645750121
    );
}

RBCPath0087
{
  edges
    (
      3
      3
    );
  index 87;
  sCoords
    (
      0
      0.00012
    );
  times
    (
      0.5318634945
      0.6518634945
    );
}

RBCPath0088
{
  edges
    (
      0
      0
    );
  index 88;
  sCoords
    (
      0
      0.00012
    );
  times
    (
      0.537976868
      0.657976868
    );
}

RBCPath0089
{
  edges
    (
      1
      1
    );
  index 89;
  sCoords
    (
      0
      0.00012
    );
  times
    (
      0.5440902415
      0.6640902415
    );
}

RBCPath0090
{
  edges
    (
      2
      2
    );
  index 90;
  sCoords
    (
      0
      0.00012
    );
  times
    (
      0.550203615
      0.670203615
    );
}

RBCPath0091
{
  edges
    (
      3
      3
    );
  index 91;
  sCoords
    (
      0
      0.00012
    );
  times
    (
      0.5563169885
      0.6763169885
    );
}

RBCPath0092
{
  edges
    (
      0
      0
    );
  index 92;
  sCoords
    (
      0
      0.00012
    );
  times
    (
      0.562430362
      0.682430362
    );
}

RBCPath0093
{
  edges
    (
      1
      1
    );
  index 93;
  sCoords
    (
      0
      0.00012
    );
  times
    (
      0.5685437355
      0.6885437355
    );
}

RBCPath0094
{
  edges
    (
      2
      2
    );
  index 94;
  sCoords
    (
      0
      0.00012
    );
  times
    (
      0.574657109
      0.694657109
    );
}

RBCPath0095
{
  edges
    (
      3
      3
    );
  index 95;
  sCoords
    (
      0
      0.00012
    );
  times
    (
      0.5807704825
      0.7007704825
    );
}

RBCPath0096
{
  edges
    (
      0
      0
    );
  index 96;
  sCoords
    (
      0
      0.00012
    );
  times
    (
      0.586883856
      0.706883856
    );
}

RBCPath0097
{
  edges
    (
      1
      1
    );
  index 97;
  sCoords
    (
      0
      0.00012
    );
  times
    (
      0.5929972295
      0.7129972295
    );
}

RBCPath0098
{
  edges
    (
      2
      2
    );
  index 98;
  sCoords
    (
      0
      0.00012
    );
  times
    (
      0.599110603
      0.719110603
    );
}

RBCPath0099
{
  edges
    (
      3
      3
    );
  index 99;
  sCoords
    (
      0
      0.00012
    );
  times
    (
      0.6052239765
      0.7252239765
    );
}

RBCPath0100
{
  edges
    (
      0
      0
    );
  index 100;
  sCoords
    (
      0
      0.00012
    );
  times
    (
      0.61133735
      0.73133735
    );
}

RBCPath0101
{
  edges
    (
      1
      1
    );
  index 101;
  sCoords
    (
      0
      0.00012
    );
  times
    (
      0.6174507235
      0.7374507235
    );
}

RBCPath0102
{
  edges
    (
      2
      2
    );
  index 102;
  sCoords
    (
      0
      0.00012
    );
  times
    (
      0.623564097
      0.743564097
    );
}

RBCPath0103
{
  edges
    (
      3
      3
    );
  index 103;
  sCoords
    (
      0
      0.00012
    );
  times
    (
      0.6296774705
      0.7496774705
    );
}

RBCPath0104
{
  edges
    (
      0
      0
    );
  index 104;
  sCoords
    (
      0
      0.00012
    );
  times
    (
      0.635790844
      0.755790844
    );
}

RBCPath0105
{
  edges
    (
      1
      1
    );
  index 105;
  sCoords
    (
      0
      0.00012
    );
  times
    (
      0.6419042175
      0.7619042175
    );
}

RBCPath0106
{
  edges
    (
      2
      2
    );
  index 106;
  sCoords
    (
      0
      0.00012
    );
  times
    (
      0.648017591
      0.768017591
    );
}

RBCPath0107
{
  edges
    (
      3
      3
    );
  index 107;
  sCoords
    (
      0
      0.00012
    );
  times
    (
      0.6541309645
      0.7741309645
    );
}

RBCPath0108
{
  edges
    (
      0
      0
    );
  index 108;
  sCoords
    (
      0
      0.00012
    );
  times
    (
      0.660244338
      0.780244338
    );
}

RBCPath0109
{
  edges
    (
      1
      1
    );
  index 109;
  sCoords
    (
      0
      0.00012
    );
  times
    (
      0.6663577115
      0.7863577115
    );
}

RBCPath0110
{
  edges
    (
      2
      2
    );
  index 110;
  sCoords
    (
      0
      0.00012
    );
  times
    (
      0.672471085
      0.792471085
    );
}

RBCPath0111
{
  edges
    (
      3
      3
    );
  index 111;
  sCoords
    (
      0
      0.00012
    );
  times
    (
      0.6785844585
      0.7985844585
    );
}

RBCPath0112
{
  edges
    (
      0
      0
    );
  index 112;
  sCoords
    (
      0
      0.00012
    );
  times
    (
      0.684697832
      0.804697832
    );
}

RBCPath0113
{
  edges
    (
      1
      1
    );
  index 113;
  sCoords
    (
      0
      0.00012
    );
  times
    (
      0.6908112055
      0.8108112055
    );
}

RBCPath0114
{
  edges
    (
      2
      2
    );
  index 114;
  sCoords
    (
      0
      0.00012
    );
  times
    (
      0.696924579
      0.816924579
    );
}

RBCPath0115
{
  edges
    (
      3
      3
    );
  index 115;
  sCoords
    (
      0
      0.00012
    );
  times
    (
      0.7030379525
      0.8230379525
    );
}

RBCPath0116
{
  edges
    (
      0
      0
    );
  index 116;
  sCoords
    (
      0
      0.00012
    );
  times
    (
      0.709151326
      0.829151326
    );
}

RBCPath0117
{
  edges
    (
      1
      1
    );
  index 117;
  sCoords
    (
      0
      0.00012
    );
  times
    (
      0.7152646995
      0.8352646995
    );
}

RBCPath0118
{
  edges
    (
      2
      2
    );
  index 118;
  sCoords
    (
      0
      0.00012
    );
  times
    (
      0.721378073
      0.841378073
    );
}

RBCPath0119
{
  edges
    (
      3
      3
    );
  index 119;
  sCoords
    (
      0
      0.00012
    );
  times
    (
      0.7274914465
      0.8474914465
    );
}

RBCPath0120
{
  edges
    (
      0
      0
    );
  index 120;
  sCoords
    (
      0
      0.00012
    );
  times
    (
      0.73360482
      0.85360482
    );
}

RBCPath0121
{
  edges
    (
      1
      1
    );
  index 121;
  sCoords
    (
      0
      0.00012
    );
  times
    (
      0.7397181935
      0.8597181935
    );
}

RBCPath0122
{
  edges
    (
      2
      2
    );
  index 122;
  sCoords
    (
      0
      0.00012
    );
  times
    (
      0.745831567
      0.865831567
    );
}

RBCPath0123
{
  edges
    (
      3
      3
    );
  index 123;
  sCoords
    (
      0
      0.00012
    );
  times
    (
      0.7519449405
      0.8719449405
    );
}

RBCPath0124
{
  edges
    (
      0
      0
    );
  index 124;
  sCoords
    (
      0
      0.00012
    );
  times
    (
      0.758058314
      0.878058314
    );
}

RBCPath0125
{
  edges
    (
      1
      1
    );
  index 125;
  sCoords
    (
      0
      0.00012
    );
  times
    (
      0.7641716875
      0.8841716875
    );
}

RBCPath0126
{
  edges
    (
      2
      2
    );
  index 126;
  sCoords
    (
      0
      0.00012
    );
  times
    (
      0.770285061
      0.890285061
    );
}

RBCPath0127
{
  edges
    (
      3
      3
    );
  index 127;
  sCoords
    (
      0
      0.00012
    );
  times
    (
      0.7763984345
      0.8963984345
    );
}

RBCPath0128
{
  edges
    (
      0
      0
    );
  index 128;
  sCoords
    (
      0
      0.00012
    );
  times
    (
      0.782511808
      0.902511808
    );
}

RBCPath0129
{
  edges
    (
      1
      1
    );
  index 129;
  sCoords
    (
      0
      0.00012
    );
  times
    (
      0.7886251815
      0.9086251815
    );
}

RBCPath0130
{
  edges
    (
      2
      2
    );
  index 130;
  sCoords
    (
      0
      0.00012
    );
  times
    (
      0.794738555
      0.914738555
    );
}

RBCPath0131
{
  edges
    (
      3
      3
    );
  index 131;
  sCoords
    (
      0
      0.00012
    );
  times
    (
      0.8008519285
      0.9208519285
    );
}

RBCPath0132
{
  edges
    (
      0
      0
    );
  index 132;
  sCoords
    (
      0
      0.00012
    );
  times
    (
      0.806965302
      0.926965302
    );
}

RBCPath0133
{
  edges
    (
      1
      1
    );
  index 133;
  sCoords
    (
      0
      0.00012
    );
  times
    (
      0.8130786755
      0.9330786755
    );
}

RBCPath0134
{
  edges
    (
      2
      2
    );
  index 134;
  sCoords
    (
      0
      0.00012
    );
  times
    (
      0.819192049
      0.939192049
    );
}

RBCPath0135
{
  edges
    (
      3
      3
    );
  index 135;
  sCoords
    (
      0
      0.00012
    );
  times
    (
      0.8253054225
      0.9453054225
    );
}

RBCPath0136
{
  edges
    (
      0
      0
    );
  index 136;
  sCoords
    (
      0
      0.00012
    );
  times
    (
      0.831418796
      0.951418796
    );
}

RBCPath0137
{
  edges
    (
      1
      1
    );
  index 137;
  sCoords
    (
      0
      0.00012
    );
  times
    (
      0.8375321695
      0.9575321695
    );
}

RBCPath0138
{
  edges
    (
      2
      2
    );
  index 138;
  sCoords
    (
      0
      0.00012
    );
  times
    (
      0.843645543
      0.963645543
    );
}

RBCPath0139
{
  edges
    (
      3
      3
    );
  index 139;
  sCoords
    (
      0
      0.00012
    );
  times
    (
      0.8497589165
      0.9697589165
    );
}

RBCPath0140
{
  edges
    (
      0
      0
    );
  index 140;
  sCoords
    (
      0
      0.00012
    );
  times
    (
      0.85587229
      0.97587229
    );
}

RBCPath0141
{
  edges
    (
      1
      1
    );
  index 141;
  sCoords
    (
      0
      0.00012
    );
  times
    (
      0.8619856635
      0.9819856635
    );
}

RBCPath0142
{
  edges
    (
      2
      2
    );
  index 142;
  sCoords
    (
      0
      0.00012
    );
  times
    (
      0.868099037
      0.988099037
    );
}

RBCPath0143
{
  edges
    (
      3
      3
    );
  index 143;
  sCoords
    (
      0
      0.00012
    );
  times
    (
      0.8742124105
      0.9942124105
    );
}

RBCPath0144
{
  edges
    (
      0
      0
    );
  index 144;
  sCoords
    (
      0
      0.00012
    );
  times
    (
      0.880325784
      1.000325784
    );
}

RBCPath0145
{
  edges
    (
      1
      1
    );
  index 145;
  sCoords
    (
      0
      0.00012
    );
  times
    (
      0.8864391575
      1.0064391575
    );
}

RBCPath0146
{
  edges
    (
      2
      2
    );
  index 146;
  sCoords
    (
      0
      0.00012
    );
  times
    (
      0.892552531
      1.012552531
    );
}

RBCPath0147
{
  edges
    (
      3
      3
    );
  index 147;
  sCoords
    (
      0
      0.00012
    );
  times
    (
      0.8986659045
      1.0186659045
    );
}

RBCPath0148
{
  edges
    (
      0
      0
    );
  index 148;
  sCoords
    (
      0
      0.00012
    );
  times
    (
      0.904779278
      1.024779278
    );
}

RBCPath0149
{
  edges
    (
      1
      1
    );
  index 149;
  sCoords
    (
      0
      0.00012
    );
  times
    (
      0.9108926515
      1.0308926515
    );
}

RBCPath0150
{
  edges
    (
      2
      2
    );
  index 150;
  sCoords
    (
      0
      0.00012
    );
  times
    (
      0.917006025
      1.037006025
    );
}

RBCPath0151
{
  edges
    (
      3
      3
    );
  index 151;
  sCoords
    (
      0
      0.00012
    );
  times
    (
      0.9231193985
      1.0431193985
    );
}

RBCPath0152
{
  edges
    (
      0
      0
    );
  index 152;
  sCoords
    (
      0
      0.00012
    );
  times
    (
      0.929232772
      1.049232772
    );
}

RBCPath0153
{
  edges
    (
      1
      1
    );
  index 153;
  sCoords
    (
      0
      0.00012
    );
  times
    (
      0.9353461455
      1.0553461455
    );
}

RBCPath0154
{
  edges
    (
      2
      2
    );
  index 154;
  sCoords
    (
      0
      0.00012
    );
  times
    (
      0.941459519
      1.061459519
    );
}

RBCPath0155
{
  edges
    (
      3
      3
    );
  index 155;
  sCoords
    (
      0
      0.00012
    );
  times
    (
      0.9475728925
      1.0675728925
    );
}

RBCPath0156
{
  edges
    (
      0
      0
    );
  index 156;
  sCoords
    (
      0
      0.00012
    );
  times
    (
      0.953686266
      1.073686266
    );
}

RBCPath0157
{
  edges
    (
      1
      1
    );
  index 157;
  sCoords
    (
      0
      0.00012
    );
  times
    (
      0.9597996395
      1.0797996395
    );
}

RBCPath0158
{
  edges
    (
      2
      2
    );
  index 158;
  sCoords
    (
      0
      0.00012
    );
  times
    (
      0.965913013
      1.085913013
    );
}

RBCPath0159
{
  edges
    (
      3
      3
    );
  index 159;
  sCoords
    (
      0
      0.00012
    );
  times
    (
      0.9720263865
      1.0920263865
    );
}

RBCPath0160
{
  edges
    (
      0
      0
    );
  index 160;
  sCoords
    (
      0
      0.00012
    );
  times
    (
      0.97813976
      1.09813976
    );
}

RBCPath0161
{
  edges
    (
      1
      1
    );
  index 161;
  sCoords
    (
      0
      0.00012
    );
  times
    (
      0.9842531335
      1.1042531335
    );
}

RBCPath0162
{
  edges
    (
      2
      2
    );
  index 162;
  sCoords
    (
      0
      0.00012
    );
  times
    (
      0.990366507
      1.110366507
    );
}

RBCPath0163
{
  edges
    (
      3
      3
    );
  index 163;
  sCoords
    (
      0
      0.00012
    );
  times
    (
      0.9964798805
      1.1164798805
    );
}

RBCPath0164
{
  edges
    (
      0
      0
    );
  index 164;
  sCoords
    (
      0
      0.00012
    );
  times
    (
      1.002593254
      1.122593254
    );
}

RBCPath0165
{
  edges
    (
      1
      1
    );
  index 165;
  sCoords
    (
      0
      0.00012
    );
  times
    (
      1.0087066275
      1.1287066275
    );
}

RBCPath0166
{
  edges
    (
      2
      2
    );
  index 166;
  sCoords
    (
      0
      0.00012
    );
  times
    (
      1.014820001
      1.134820001
    );
}

RBCPath0167
{
  edges
    (
      3
      3
    );
  index 167;
  sCoords
    (
      0
      0.00012
    );
  times
    (
      1.0209333745
      1.1409333745
    );
}

RBCPath0168
{
  edges
    (
      0
      0
    );
  index 168;
  sCoords
    (
      0
      0.00012
    );
  times
    (
      1.027046748
      1.147046748
    );
}

RBCPath0169
{
  edges
    (
      1
      1
    );
  index 169;
  sCoords
    (
      0
      0.00012
    );
  times
    (
      1.0331601215
      1.1531601215
    );
}

RBCPath0170
{
  edges
    (
      2
      2
    );
  index 170;
  sCoords
    (
      0
      0.00012
    );
  times
    (
      1.039273495
      1.159273495
    );
}

RBCPath0171
{
  edges
    (
      3
      3
    );
  index 171;
  sCoords
    (
      0
      0.00012
    );
  times
    (
      1.0453868685
      1.1653868685
    );
}

RBCPath0172
{
  edges
    (
      0
      0
    );
  index 172;
  sCoords
    (
      0
      0.00012
    );
  times
    (
      1.051500242
      1.171500242
    );
}

RBCPath0173
{
  edges
    (
      1
      1
    );
  index 173;
  sCoords
    (
      0
      0.00012
    );
  times
    (
      1.0576136155
      1.1776136155
    );
}

RBCPath0174
{
  edges
    (
      2
      2
    );
  index 174;
  sCoords
    (
      0
      0.00012
    );
  times
    (
      1.063726989
      1.183726989
    );
}

RBCPath0175
{
  edges
    (
      3
      3
    );
  index 175;
  sCoords
    (
      0
      0.00012
    );
  times
    (
      1.0698403625
      1.1898403625
    );
}

RBCPath0176
{
  edges
    (
      0
      0
    );