// -*- C++ -*-
// File generated by PyFoam - sorry for the ugliness

FoamFile
{
 version 2.0;
 format ascii;
 class dictionary;
 location "constant";
 object edgeVelocities;
}

edgeVelocities
  6767
  (

    (
      5.00401957631

      (
        0.000912477711756
        -0.000912477711756
        0.000394106806126
        -0.00041003047901
        0.000920406407053
        0.000684505179907
        0.00018753416869
        0.000668971575196
        0.000191995080465
        0.000684505179907
        0.00018753416869
        0.000920406407053
        0.000671143023866
        0.000499128290258
        0.000136746385171
        0.000487801478148
        0.000139999198053
        0.000499128290258
        0.000136746385171
        0.000671143023866
      )
    )

    (
      5.00955334076

      (
        0.000912477711756
        -0.000912477711756
        0.000392106009408
        -0.00040794884118
        0.000923813657927
        0.000687039148439
        0.000188228401102
        0.000671448039904
        0.000192705826718
        0.000687039148439
        0.000188228401102
        0.000923813657927
        0.000667735772992
        0.000297812363866
        0.000138674872538
        0.000461878506616
        0.000141973558725
        0.000494854259623
        0.000138674872538
        0.000667735772992
      )
    )

    (
      5.01383973371

      (
        0.000883783913811
        -0.000912477711756
        0.000247297467759
        -0.000247297467759
        0.00118676983818
        0.000882599355419
        0.000241806112303
        0.000862570362348
        0.000247558001365
        0.000882599355419
        0.000241806112303
        0.00118676983818
        0.000526398243256
        0.000183405122536
        7.68711786391e-05
        0.000284443812213
        7.86997283286e-05
        0.000183405122536
        7.68711786391e-05
        0.000526398243256
      )
    )

    (
      5.01506110011

      (
        0.000912477711756
        -0.000912477711756
        0.000371455624792
        -0.000371455624792
        0.00127905904159
        0.000731462179492
        0.000200398997386
        0.000714862970763
        0.000205165927345
        0.000731462179492
        0.000200398997386
        0.000983546211605
        0.000790681724766
        0.000275485491214
        0.000115465119593
        0.000427251661497
        0.000118211710869
        0.000275485491214
        0.000115465119593
        0.000790681724766
      )
    )

    (
      5.01526811822

      (
        0.000912477711756
        -0.000912477711756
        0.000372984319717
        -0.000372984319717
        0.0012758050563
        0.000437548880623
        0.000203742499008
        0.00067859648582
        0.000208588961491
        0.000727044789405
        0.000203742499008
        0.000981044024605
        0.000793935710058
        0.000276619228985
        0.00011594030675
        0.000429009980399
        0.000118698201395
        0.000276619228985
        0.00011594030675
        0.000793935710058
      )
    )

    (
      5.01556758896

      (
        0.000912477711756
        -0.000944837417716
        0.00045534090716
        -0.00045534090716
        0.00110050054007
        0.000383431060015
        0.00016070869288
        0.000594664919517
        0.00016453150184
        0.000383431060015
        0.00016070869288
        0.00110050054007
        0.00096924022629
        0.000337697978188
        0.000141540439266
        0.000523737281514
        0.000144907289246
        0.000337697978188
        0.000141540439266
        0.00096924022629
      )
    )

    (
      5.01767568501

      (
        0.000912477711756
        -0.000981802961392
        0.00045534090716
        -0.00045534090716
        0.00110050054007
        0.000383431060015
        0.00016070869288
        0.000594664919517
        0.00016453150184
        0.000383431060015
        0.00016070869288
        0.00110050054007
        0.00096924022629
        0.000337697978188
        0.000141540439266
        0.000523737281514
        0.000144907289246
        0.000337697978188
        0.000141540439266
        0.00096924022629
      )
    )

    (
      5.01970440982

      (
        0.000912477711756
        -0.00102471519541
        0.00045534090716
        -0.00045534090716
        0.00110050054007
        0.000383431060015
        0.00016070869288
        0.000594664919517
        0.00016453150184
        0.000383431060015
        0.00016070869288
        0.00110050054007
        0.00096924022629
        0.000337697978188
        0.000141540439266
        0.000523737281514
        0.000144907289246
        0.000337697978188
        0.000141540439266
        0.00096924022629
      )
    )

    (
      5.01990725095

      (
        0.000912477711756
        -0.00102471519541
        0.000455602037363
        -0.000455602037363
        0.00109994469742
        0.000385062637286
        0.000117805260918
        0.000597195339891
        0.000153200614619
        0.000385062637286
        0.000156056197774
        0.00109994469742
        0.00096979606894
        0.000337891642188
        0.000141621610281
        0.000524037635865
        0.000144990391092
        0.000337891642188
        0.000141621610281
        0.00096979606894
      )
    )

    (
      5.0201832858

      (
        0.000883783913811
        -0.00102471519541
        0.000454418456604
        -0.000454418456604
        0.0011024640715
        0.00038728400014
        0.000115542796582
        0.000628919514384
        0.000150258378219
        0.00064352310517
        0.000153059119553
        0.0011024640715
        0.000967276694852
        0.000337013854089
        0.000141253700133
        0.000522676270436
        0.000144613729394
        0.000337013854089
        0.000141253700133
        0.000967276694852
      )
    )

    (
      5.02025742499

      (
        0.000883783913811
        -0.00102471519541
        0.000523920337777
        -0.000523920337777
        0.000954522127399
        0.00032516878824
        0.000119217819434
        0.000528049174039
        0.000155037585491
        0.000540310542745
        0.000119217819434
        0.00078166026419
        0.00111521863896
        0.000388559068638
        0.00016285801162
        0.000602617970673
        0.000166731946843
        0.000388559068638
        0.00016285801162
        0.00111521863896
      )
    )

    (
      5.02163223442

      (
        0.000883783913811
        -0.00102471519541
        0.000598340557687
        -0.000575103798954
        0.000796110990486
        0.000271204237859
        9.94325994014e-05
        0.000440414882906
        0.000129307767945
        0.000450641372272
        9.94325994014e-05
        0.000651937036645
        0.00127362977587
        0.000443751908562
        0.000185991164058
        0.000688216789168
        0.000190415372081
        0.000443751908562
        0.000185991164058
        0.000979371319315
      )
    )

    (
      5.02337157977

      (
        0.000883783913811
        -0.000981802961392
        0.000600682679487
        -0.000600682679487
        0.000791125541941
        0.00026950588827
        9.88099272941e-05
        0.000437656893425
        0.00012849800997
        0.000447819341926
        9.88099272941e-05
        0.000647854441893
        0.00127861522442
        0.000445488914362
        0.000186719200883
        0.000690910719112
        0.00019116072686
        0.000445488914362
        0.000186719200883
        0.000983204933614
      )
    )

    (
      5.02360157631

      (
        0.000883783913811
        -0.00102471519541
        0.000600682679487
        -0.000600682679487
        0.000791125541941
        0.00026950588827
        9.88099272941e-05
        0.000437656893425
        0.00012849800997
        0.000447819341926
        9.88099272941e-05
        0.000647854441893
        0.00127861522442
        0.000445488914362
        0.000186719200883
        0.000690910719112
        0.00019116072686
        0.000445488914362
        0.000186719200883
        0.000983204933614
      )
    )

    (
      5.02384791511

      (
        0.000883783913811
        -0.00102471519541
        0.000695751607396
        -0.000695751607396
        0.000588761493925
        0.000200568280238
        7.3535080495e-05
        0.00032570750499
        9.56291717373e-05
        0.000333270474512
        7.3535080495e-05
        0.00048213807902
        0.0011388149456
        0.000843967703312
        0.000236508247443
        0.00078772797214
        0.000242134115162
        0.000507915233349
        0.000236508247443
        0.0011388149456
      )
    )

    (
      5.02583623408

      (
        0.000883783913811
        -0.00102471519541
        0.000643536885991
        -0.000643536885991
        0.000538200195331
        0.000388994211748
        9.55976101742e-05
        0.000380166692983
        0.000124320531364
        0.000388994211748
        9.55976101742e-05
        0.000573154501631
        0.00105334923559
        0.000780629669975
        0.000218758791862
        0.000728610614492
        0.000223962449827
        0.000469797243933
        0.000218758791862
        0.00105334923559
      )
    )

    (
      5.02631037408

      (
        0.000883783913811
        -0.00102471519541
        0.000643004569345
        -0.000643004569345
        0.000539071497884
        0.00038962396189
        9.57523749671e-05
        0.000380782152087
        0.000124521796241
        0.00038962396189
        9.57523749671e-05
        0.000574082392377
        0.00105247793304
        0.000784048198639
        0.000160377873124
        0.000731801341627
        0.000208564443917
        0.000471854577143
        0.000212451981277
        0.00105247793304
      )
    )

    (
      5.02633709075

      (
        0.000883783913811
        -0.000981802961392
        0.000646293586181
        -0.000675564407137
        0.000533687993931
        0.000385732934175
        9.47961320733e-05
        0.000376979424195
        0.000123278243976
        0.000385732934175
        9.47961320733e-05
        0.000568349247811
        0.00105786143699
        0.000788058664269
        0.000161198218033
        0.000735544560646
        0.000209631266767
        0.000474268148869
        0.000213538689174
        0.00105786143699
      )
    )

    (
      5.02651528232

      (
        0.000883783913811
        -0.000981802961392
        0.000648270099257
        -0.000677630437054
        0.000530452812571
        0.000383394646612
        9.42214841835e-05
        0.000374694199831
        0.000122530939406
        0.000383394646612
        9.42214841835e-05
        0.00056490395222
        0.00106109661835
        0.000793170096727
        0.000158617546222
        0.000775170538634
        0.000206275215395
        0.000793170096727
        0.000210120082675
        0.00106109661835
      )
    )

    (
      5.02765722364

      (
        0.000883783913811
        -0.000981802961392
        0.000648270099257
        -0.000677630437054
        0.000530452812571
        0.000383394646612
        9.42214841835e-05
        0.000374694199831
        0.000122530939406
        0.000383394646612
        9.42214841835e-05
        0.00056490395222
        0.00106109661835
        0.000793170096727
        0.000158617546222
        0.000775170538634
        0.000206275215395
        0.000793170096727
        0.000210120082675
        0.00106109661835
      )
    )

    (
      5.02836581556

      (
        0.000883783913811
        -0.000944837417716
        0.000558055969796
        -0.000583330483925
        0.000678116429647
        0.000490121275154
        0.000120450179425
        0.000478998860931
        0.000156640216023
        0.000490121275154
        0.000120450179425
        0.000881860903287
        0.000913433001272
        0.000682791490845
        0.000136544117467
        0.000667296775202
        0.000177569681995
        0.000682791490845
        0.00018087949243
        0.000913433001272
      )
    )

    (
      5.02841716262

      (
        0.000912477711756
        -0.000944837417716
        0.000532686398918
        -0.000579309603091
        0.00068441269797
        0.000494672020312
        0.000121568551752
        0.000483446335174
        0.000158094610559
        0.000494672020312
        0.000121568551752
        0.00089004892621
        0.000907136732949
        0.000678085028052
        0.000135602922656
        0.000662697117053
        0.000176345699106
        0.000678085028052
        0.000179632695109
        0.000907136732949
      )
    )

    (
      5.03060001926

      (
        0.000912477711756
        -0.000944837417716
        0.000615112153335
        -0.00066894964491
        0.000707508147807
        0.000393219377673
        9.66359694938e-05
        0.000384295976424
        0.000125670872467
        0.000393219377673
        9.66359694938e-05
        0.000707508147807
        0.00104750342848
        0.000783009182506
        0.000156585574407
        0.000765240207949
        0.000203632724487
        0.000783009182506
        0.000207428337052
        0.00104750342848
      )
    )

    (
      5.03172332533

      (
        0.000912477711756
        -0.000981802961392
        0.000615112153335
        -0.00066894964491
        0.000707508147807
        0.000393219377673
        9.66359694938e-05
        0.000384295976424
        0.000125670872467
        0.000393219377673
        9.66359694938e-05
        0.000707508147807
        0.00104750342848
        0.000783009182506
        0.000156585574407
        0.000765240207949
        0.000203632724487
        0.000783009182506
        0.000207428337052
        0.00104750342848
      )
    )

    (
      5.03278287589

      (
        0.000944837417716
        -0.000981802961392
        0.000590005849213
        -0.000665083598553
        0.000715380869607
        0.000397594884551
        9.77112759847e-05
        0.000388572189102
        0.000127069261758
        0.000397594884551
        9.77112759847e-05
        0.000715380869607
        0.00104144961435
        0.000778483954306
        0.00015568062275
        0.000760817671603
        0.000202455874243
        0.000778483954306
        0.000206229550906
        0.00104144961435
      )
    )

    (
      5.03491700725

      (
        0.000912477711756
        -0.000981802961392
        0.000588794708718
        -0.000663718341446
        0.00071816104563
        0.000399140052743
        9.80910101351e-05
        0.000390082292502
        0.000127563089494
        0.000399140052743
        9.80910101351e-05
        0.00071816104563
        0.00103931176809
        0.000775112207037
        0.000157379193615
        0.000798408665331
        0.000204664791727
        0.000691958664697
        0.000208479641512
        0.00103931176809
      )
    )

    (
      5.03521360993

      (
        0.000912477711756
        -0.000981802961392
        0.000589393725668
        -0.000664393582801
        0.000716786000728
        0.000397295545804
        9.91323581297e-05
        0.00040923649968
        0.000128917317238
        0.000354673933488
        9.91323581297e-05
        0.000716786000728
        0.00104036912366
        0.0007759007762
        0.000157539305116
        0.000799220935409
        0.000204873009765
        0.000692662636664
        0.000208691740631
        0.00104036912366
      )
    )

    (
      5.03551841872

      (
        0.000912477711756
        -0.000944837417716
        0.000509812520907
        -0.000574685736497
        0.000899464854518
        0.000498549608871
        0.000124397061316
        0.000513533813823
        0.000161772964144
        0.000445065525363
        0.000124397061316
        0.000691653177349
        0.00089989625357
        0.000671136989522
        0.000136268010305
        0.000691308410826
        0.000177210616648
        0.000599137842086
        0.000180513734283
        0.00089989625357
      )
    )

    (
      5.03707290527

      (
        0.000944837417716
        -0.000944837417716
        0.00048959142391
        -0.000570307545568
        0.00090838049494
        0.000503491312844
        0.000125630105012
        0.000518624043647
        0.000163376483804
        0.00044947708649
        0.000125630105012
        0.000698508954976
        0.000893040475943
        0.000666023993509
        0.000135229864883
        0.000686041740677
        0.000175860553709
        0.000594573365018
        0.000179138506843
        0.000893040475943
      )
    )

    (
      5.03904738491

      (
        0.000912477711756
        -0.000912477711756
        0.00049257471626
        -0.000603425682075
        0.000901303824385
        0.000499568901291
        0.00012465139304
        0.000514583741682
        0.000162103711482
        0.000445975468743
        0.00012465139304
        0.000693067273014
        0.000898482157905
        0.000670082365832
        0.000136053878952
        0.000690222089794
        0.000176932148143
        0.000598196357752
        0.000180230075263
        0.000898482157905
      )
    )

    (
      5.03933001879

      (
        0.000912477711756
        -0.000912477711756
        0.00049257471626
        -0.000603425682075
        0.000901303824385
        0.000499568901291
        0.00012465139304
        0.000514583741682
        0.000162103711482
        0.000445975468743
        0.00012465139304
        0.000693067273014
        0.000898482157905
        0.000670082365832
        0.000136053878952
        0.000690222089794
        0.000176932148143
        0.000598196357752
        0.000180230075263
        0.000898482157905
      )
    )

    (
      5.03964017257

      (
        0.000912477711756
        -0.000912477711756
        0.000491616520149
        -0.000602251849715
        0.00090357676227
        0.000500828730719
        0.000124965743059
        0.000515881436033
        0.000162512509999
        0.000447100144475
        0.000124965743059
        0.000694815073056
        0.000896734357863
        0.000401784061602
        0.000137111366398
        0.000652466502149
        0.000178307364541
        0.000595995347108
        0.000181630925011
        0.000896734357863
      )
    )

    (
      5.0400234144

      (
        0.000912477711756
        -0.000912477711756
        0.000487525930444
        -0.000597240697494
        0.00091328005391
        0.000506207008956
        0.000126307719856
        0.000521421361621
        0.000164257692418
        0.000451901444459
        0.000126307719856
        0.000702276523562
        0.000889272907357
        0.000395449690611
        0.000141625836045
        0.000676840744546
        0.000184178235836
        0.00053751233218
        0.000187611226422
        0.000889272907357
      )
    )

    (
      5.04104550216

      (
        0.000912477711756
        -0.000944837417716
        0.000487525930444
        -0.000597240697494
        0.00091328005391
        0.000506207008956
        0.000126307719856
        0.000521421361621
        0.000164257692418
        0.000451901444459
        0.000126307719856
        0.000702276523562
        0.000889272907357
        0.000395449690611
        0.000141625836045
        0.000676840744546
        0.000184178235836
        0.00053751233218
        0.000187611226422
        0.000889272907357
      )
    )

    (
      5.04179104526

      (
        0.000944837417716
        -0.000944837417716
        0.00046919763359
        -0.000592457631244
        0.000922541693692
        0.000511340491235
        0.000127588615676
        0.000526709133761
        0.000165923441683
        0.000456484210038
        0.000127588615676
        0.000709398361119
        0.0008821510698
        0.000392282689306
        0.000140491610331
        0.000671420192773
        0.000182703224659
        0.000533207606957
        0.000186108721772
        0.0008821510698
      )
    )

    (
      5.04266981987

      (
        0.000944837417716
        -0.000944837417716
        0.00035620098726
        -0.000449776337412
        0.000921846390069
        0.000579923060649
        0.000182708253693
        0.000669137652969
        0.000237604131969
        0.000579923060649
        0.000182708253693
        0.000921846390069
        0.00066970304085
        0.000297809432981
        0.00010665708162
        0.000509722382233
        0.000138702892641
        0.000404795468722
        0.000141288245479
        0.00066970304085
      )
    )

    (
      5.04422740253

      (
        0.000944837417716
        -0.000944837417716
        0.000279362879355
        -0.00034223180861
        0.00108197686376
        0.000680659317152
        0.000214445818136
        0.000785371041189
        0.000278877453222
        0.000680659317152
        0.000214445818136
        0.00108197686376
        0.000662676945606
        0.00022660120685
        8.11546604561e-05
        0.000387844353406
        0.000105538103852
        0.000308006166298
        0.000107505281545
        0.000509572567157
      )
    )

    (
      5.04512874749

      (
        0.000944837417716
        -0.000944837417716
        0.000228963275186
        -0.000280490077827
        0.00117390838931
        0.000738492392423
        0.000232666476885
        0.000852101079837
        0.000302572626912
        0.000738492392423
        0.000232666476885
        0.00117390838931
        0.000543123997744
        0.000190351390692
        5.77579435847e-05
        0.000325800171451
        7.51116918494e-05
        0.000282361980004
        7.65117363763e-05
        0.000543123997744
      )
    )

    (
      5.04586218654

      (
        0.000944837417716
        -0.000944837417716
        0.000233527540788
        -0.000286081503844
        0.00116558292909
        0.00072562294025
        0.00024074371478
        0.000890428502811
        0.000313076723252
        0.000664902601839
        0.00024074371478
        0.00116558292909
        0.000553950896416
        0.000194145948155
        5.89093186028e-05
        0.000332294830973
        7.66090049494e-05
        0.000287990721431
        7.80369586467e-05
        0.000553950896416
      )
    )

    (
      5.04593738007

      (
        0.000944837417716
        -0.000944837417716
        0.00033166558047
        -0.000406304916817
        0.000986573989414
        0.000632016084944
        0.000181040940492
        0.000775561390156
        0.000235435863716
        0.000632016084944
        0.000181040940492
        0.00128299653485
        0.000786744231503
        0.00027573419552
        8.36654780999e-05
        0.000471939016829
        0.00010880331292
        0.000409016467486
        0.000110831352484
        0.000786744231503
      )
    )

    (
      5.04881915865

      (
        0.000944837417716
        -0.000944837417716
        0.000410313004081
        -0.000502651468252
        0.00109643690825
        0.000540115069151
        0.000154715904266
        0.000662787552175
        0.000201201299842
        0.000540115069151
        0.000154715904266
        0.00109643690825
        0.000973303858102
        0.000341118683257
        0.000103504963067
        0.000583849296221
        0.000134603699651
        0.000506006005371
        0.000137112645574
        0.000973303858102
      )
    )

    (
      5.04923588187

      (
        0.000944837417716
        -0.000944837417716
        0.000409273594756
        -0.000501378146134
        0.00109890249208
        0.000609092623088
        0.000151979524271
        0.000627399264065
        0.000197642756752
        0.000543749555642
        0.000151979524271
        0.00109890249208
        0.000970838274277
        0.000340254557731
        0.000103242763178
        0.00058237028289
        0.000134262720108
        0.000504724185503
        0.000136765310342
        0.000970838274277
      )
    )

    (
      5.05455553251

      (
        0.000912477711756
        -0.000912477711756
        0.00033024182146
        -0.000404560749438
        0.00128637383492
        0.000713003036241
        0.000177907034405
        0.000734432766474
        0.000231360355246
        0.000636512526062
        0.000177907034405
        0.00098917100064
        0.000783366931433
        0.000274550536231
        8.33063227178e-05
        0.000469913098353
        0.000108336246977
        0.000407260660085
        0.000110355580664
        0.000783366931433
      )
    )

    (
      5.05528941019

      (
        0.000912477711756
        -0.000912477711756
        0.000289779762099
        -0.000343529731991
        0.00140455060053
        0.000778505295695
        0.000194251021925
        0.000801903735286
        0.000252614999682
        0.000694987744972
        0.000194251021925
        0.00108004429603
        0.000544725686113
        0.000233132532655
        7.07389403351e-05
        0.000399023189869
        9.1992913155e-05
        0.000345822340906
        9.37076152394e-05
        0.000665190165827
      )
    )

    (
      5.05593481073

      (
        0.000912477711756
        -0.000912477711756
        0.000289779762099
        -0.000343529731991
        0.00140455060053
        0.000778505295695
        0.000194251021925
        0.000801903735286
        0.000252614999682
        0.000694987744972
        0.000194251021925
        0.00108004429603
        0.000544725686113
        0.000233132532655
        7.07389403351e-05
        0.000399023189869
        9.1992913155e-05
        0.000345822340906
        9.37076152394e-05
        0.000665190165827
      )
    )

    (
      5.05629993837

      (
        0.000912477711756
        -0.000912477711756
        0.000339058210212
        -0.000401948622084
        0.00129143180012
        0.000715806532739
        0.000178606557019
        0.000737320523726
        0.000232270053961
        0.000639015265246
        0.000178606557019
        0.000993060377396
        0.000778308966238
        0.000446349387555
        9.06270163806e-05
        0.000459764683814
        0.000117856490469
        0.000398465310437
        0.000120053276753
        0.000778308966238
      )
    )

    (
      5.05668365308

      (
        0.000912477711756
        -0.000912477711756
        0.000414868605923
        -0.000491820753706
        0.0011174088479
        0.000633851341044
        0.000138039400003
        0.000652902120011
        0.000179514231854
        0.000633851341044
        0.000138039400003
        0.0011174088479
        0.000952331918459
        0.000546149134845
        0.000110890410001
        0.000562563971854
        0.000144208151955
        0.000487558604602
        0.000146896120085
        0.000952331918459
      )
    )

    (
      5.05673838914

      (
        0.000912477711756
        -0.000883783913811
        0.000416263370146
        -0.000523265889846
        0.00111420716315
        0.000632035182012
        0.000137643879023
        0.000651031375239
        0.000178999874034
        0.000632035182012
        0.000137643879023
        0.00111420716315
        0.000955533603208
        0.000547985256603
        0.000111263217137
        0.000564455279343
        0.000144692971409
        0.00048919774839
        0.000147389976332
        0.000955533603208
      )
    )

    (
      5.05686898871

      (
        0.000912477711756
        -0.000883783913811
        0.000486168710174
        -0.000576345999799
        0.00095373928096
        0.000541009607522
        0.000117820436406
        0.000557269972981
        0.00015322034968
        0.000541009607522
        0.000117820436406
        0.00095373928096
        0.0011160014854
        0.000640011359402
        0.000129948245858
        0.000659247281384
        0.000168992038037
        0.000571351349679
        0.00017214196546
        0.000858161349411
      )
    )

    (
      5.05753134374

      (
        0.000912477711756
        -0.000883783913811
        0.000408256553312
        -0.00048398226062
        0.000870914829465
        0.000560416952912
        0.000156638108506
        0.000646630751562
        0.000203701042796
        0.000627762962434
        0.000156638108506
        0.00113258683114
        0.000937153935216
        0.000537444772158
        0.000109123071585
        0.00055359799437
        0.000141909805264
        0.000479788040383
        0.000144554933356
        0.000720634601454
      )
    )

    (
      5.05851111785

      (
        0.000944837417716
        -0.000883783913811
        0.000491885431328
        -0.000583123090344
        0.000940616533308
        0.000465427847968
        0.000130088387535
        0.000537028649055
        0.00016917428619
        0.000521358897375
        0.000130088387535
        0.000940616533308
        0.00112912423305
        0.000647537073009
        0.00013147627074
        0.000666999184788
        0.000170979167893
        0.000578069709538
        0.000174166134426
        0.000868252227407
      )
    )

    (
      5.0590473681

      (
        0.000944837417716
        -0.000883783913811
        0.000425940527878
        -0.000504946357627
        0.00109199322347
        0.000540330770294
        0.000151023964187
        0.000623454537327
        0.000196400092453
        0.000605262998009
        0.000151023964187
        0.00109199322347
        0.00097774754289
        0.000571737265641
        0.000101319525643
        0.000588921169137
        0.000131761633397
        0.000571737265641
        0.00013421760462
        0.00097774754289
      )
    )

    (
      5.06069226316

      (
        0.000944837417716
        -0.000883783913811
        0.000424868920406
        -0.000503675982412
        0.00109445310109
        0.000541547945953
        0.000151364168194
        0.000624858961669