// -*- C++ -*-
// File generated by PyFoam - sorry for the ugliness

FoamFile
{
 version 2.0;
 format ascii;
 class dictionary;
 location "constant";
 object graphDict;
}

adjacencyList
  (

    (
      0
      2
    )

    (
      1
      9
    )

    (
      2
      10
    )

    (
      9
      17
    )

    (
      2
      3
    )

    (
      3
      4
    )

    (
      3
      5
    )

    (
      4
      6
    )

    (
      5
      7
    )

    (
      6
      8
    )

    (
      7
      8
    )

    (
      8
      9
    )

    (
      10
      11
    )

    (
      11
      12
    )

    (
      11
      13
    )

    (
      12
      14
    )

    (
      13
      15
    )

    (
      14
      16
    )

    (
      15
      16
    )

    (
      16
      17
    )
  );

edgeIndices
  (
    0
    1
    2
    3
    4
    5
    6
    7
    8
    9
    10
    11
    12
    13
    14
    15
    16
    17
    18
    19
  );

edgeType straight;

segmentDiameters
  (

    (
      7e-06
    )

    (
      7e-06
    )

    (
      7e-06
    )

    (
      7e-06
    )

    (
      4e-06
    )

    (
      5.5e-06
    )

    (
      4e-06
    )

    (
      5.5e-06
    )

    (
      4e-06
    )

    (
      5.5e-06
    )

    (
      4e-06
    )

    (
      4e-06
    )

    (
      4e-06
    )

    (
      5.5e-06
    )

    (
      4e-06
    )

    (
      5.5e-06
    )

    (
      4e-06
    )

    (
      5.5e-06
    )

    (
      4e-06
    )

    (
      4e-06
    )
  );

tubeOptions
{
  useEffectiveDiameter no;
  outerInnerDiameterRatio 1.25;
}

vertexIndices
  (
    0
    1
    2
    3
    4
    5
    6
    7
    8
    9
    10
    11
    12
    13
    14
    15
    16
    17
  );

vertexPositions
  (

(-8.33333e-06 5.83333e-05 0)
(0.000108333 5.83333e-05 0)
(1.66667e-05 3.33333e-05 0)
(2.66667e-05 3.33333e-05 0)
(3.5e-05 4.16667e-05 0)
(3.5e-05 2.5e-05 0)
(6.5e-05 4.16667e-05 0)
(6.5e-05 2.5e-05 0)
(7.33333e-05 3.33333e-05 0)
(8.33333e-05 3.33333e-05 0)
(1.66667e-05 0 0)
(2.66667e-05 0 0)
(3.5e-05 8.33333e-06 0)
(3.5e-05 -8.33333e-06 0)
(6.5e-05 8.33333e-06 0)
(6.5e-05 -8.33333e-06 0)
(7.33333e-05 0 0)
(8.33333e-05 0 0)  );

