/*--------------------------------*- C++ -*----------------------------------*\
| =========                 |                                                 |
| \\      /  F ield         | OpenFOAM: The Open Source CFD Toolbox           |
|  \\    /   O peration     | Version:  2.3.0                                 |
|   \\  /    A nd           | Web:      www.OpenFOAM.org                      |
|    \\/     M anipulation  |                                                 |
\*---------------------------------------------------------------------------*/
FoamFile
{
    version     2.0;
    format      ascii;
    class       dictionary;
    location    "constant";
    object      edgeVelocities;
}
// * * * * * * * * * * * * * * * * * * * * * * * * * * * * * * * * * * * * * //

edgeVelocities  6 ( ( 0 8 ( 0.2 0.1 0.1 0.1 0.1 0.1 0.1 0.2 ) ) ( 1 8 ( 0.2 0.1 0.05 0.1 0.1 0.1 0.1 0.2 ) ) ( 2 8 ( 0.2 0.1 0.1 0.1 0.1 0.1 0.1 0.2 ) ) ( 3 8 ( 0.2 0.1 0.05 0.1 0.1 0.1 0.1 0.2 ) ) ( 4 8 ( 0.2 0.1 0.05 0.1 0.1 0.1 0.1 0.2 ) ) ( 5 8 ( 0.2 0.1 0.05 0.1 0.1 0.1 0.1 0.2 ) ) );


// ************************************************************************* //
