/*--------------------------------*- C++ -*----------------------------------*\
| =========                 |                                                 |
| \\      /  F ield         | OpenFOAM: The Open Source CFD Toolbox           |
|  \\    /   O peration     | Version:  2.3.0                                 |
|   \\  /    A nd           | Web:      www.OpenFOAM.org                      |
|    \\/     M anipulation  |                                                 |
\*---------------------------------------------------------------------------*/
FoamFile
{
    version     2.0;
    format      ascii;
    class       dictionary;
    object      RBCMoverDict;
}

// * * * * * * * * * * * * * * * * * * * * * * * * * * * * * * * * * * * * * //

#include "../../initialConditions"
#include "../../geometricData"

type            RBCVelocityMover;

linearDensity   $LDMean;
RBCVelocity     $RBCVelocity;

RBCRadius       $radiusRBC;
RBCVolume       $RBCVolume;
plasmaRadius    $radiusPlasma;

initialField    Hb;
initialValue    0.5;

inletFieldName  Hb;
inletValue
{
    #include "../../initialConditions"
    type        cyclicList;
    values      ($HbInlet1 $HbInlet2);
}

sampleMeshName  sampleRBC;
