// -*- C++ -*-
// File generated by PyFoam - sorry for the ugliness

FoamFile
{
 version 2.0;
 format ascii;
 class dictionary;
 location "constant";
 object graphDict;
}

edgeType straight;

tubeOptions
{
    outerInnerDiameterRatio 1.25;
    useEffectiveDiameter false;
}

vertexIndices
(
    0
    1
);

edgeIndices
(
    0
);

adjacencyList
(
    (0 1)
);

vertexPositions
(
    (0 0 0)
    (100e-6 0 0)
);

segmentDiameters
(
    (4e-06)
); 	
// ************************************************************************* //

