// -*- C++ -*-
// File generated by PyFoam - sorry for the ugliness

FoamFile
{
 version 2.0;
 format ascii;
 class dictionary;
 location "constant";
 object RBCPath;
}

RBCPath1
{
  index   1;
  edges   2(0 0);
  sCoords 2(0 100e-6);
  times   2(0 100e-3);
}

