/*--------------------------------*- C++ -*----------------------------------*\
| =========                 |                                                 |
| \\      /  F ield         | OpenFOAM: The Open Source CFD Toolbox           |
|  \\    /   O peration     | Version:  2.1.1                                 |
|   \\  /    A nd           | Web:      www.OpenFOAM.org                      |
|    \\/     M anipulation  |                                                 |
\*---------------------------------------------------------------------------*/
FoamFile
{
    version     2.0;
    format      ascii;
    class       dictionary;
    location    "system";
    object      fvSchemes;
}
// * * * * * * * * * * * * * * * * * * * * * * * * * * * * * * * * * * * * * //

ddtSchemes
{
    default         Euler;
}

gradSchemes
{
    default         Gauss linear;
}

divSchemes
{
    default         none;
    div(phi,C)      Gauss upwind;
}

laplacianSchemes
{
    default                         none;
    laplacian((kappa_O2*alpha),PO2) Gauss harmonic corrected;
    laplacian(kappaHb,Hb)           Gauss harmonic uncorrected;
}

interpolationSchemes
{
    interpolate((kappa_O2*alpha)) harmonic;
}
    


// ************************************************************************* //
