// -*- C++ -*-
// File generated by PyFoam - sorry for the ugliness

FoamFile
{
 version 2.0;
 format ascii;
 class dictionary;
 location "constant";
 object edgeVelocities;
}

edgeVelocities
  1593
  (

    (
      5.00111017198

      30
      (
        0.000920293379753
        -0.000878860171176
        0.000576844246646
        -0.000576844246646
        0.000271839377657
        -0.000271839377657
        0.000610653190721
        0.000365413319406
        0.000365413319406
        0.00037383306102
        0.00037383306102
        0.000365413319406
        0.000365413319406
        0.000717843248527
        0.000720354152319
        0.000366691478239
        0.000366691478239
        0.000375140670797
        0.000375140670797
        0.000366691478239
        0.000366691478239
        0.000720354152319
        0.000642024585076
        0.000326818334301
        0.000326818334301
        0.000334348782107
        0.000334348782107
        0.000326818334301
        0.000326818334301
        0.000642024585076
      )
    )

    (
      5.0029581935

      30
      (
        0.000878860171176
        -0.000878860171176
        0.000575324872752
        -0.000558474228106
        0.000271884510351
        -0.000280777423793
        0.00061370578413
        0.000367239983554
        0.000367239983554
        0.000375701814603
        0.000375701814603
        0.000367239983554
        0.000367239983554
        0.000721431674171
        0.000716659133216
        0.000364810553402
        0.000364810553402
        0.000373216406267
        0.000373216406267
        0.000364810553402
        0.000364810553402
        0.000716659133216
        0.000642131178534
        0.00032687259499
        0.00032687259499
        0.000334404293055
        0.000334404293055
        0.00032687259499
        0.00032687259499
        0.000642131178534
      )
    )

    (
      5.00436514693

      30
      (
        0.000878860171176
        -0.000920293379753
        0.000575324872752
        -0.000558474228106
        0.000271884510351
        -0.000280777423793
        0.00061370578413
        0.000367239983554
        0.000367239983554
        0.000375701814603
        0.000375701814603
        0.000367239983554
        0.000367239983554
        0.000721431674171
        0.000716659133216
        0.000364810553402
        0.000364810553402
        0.000373216406267
        0.000373216406267
        0.000364810553402
        0.000364810553402
        0.000716659133216
        0.000642131178534
        0.00032687259499
        0.00032687259499
        0.000334404293055
        0.000334404293055
        0.00032687259499
        0.00032687259499
        0.000642131178534
      )
    )

    (
      5.00458267592

      30
      (
        0.000878860171176
        -0.000878860171176
        0.000539446080977
        -0.000523646287423
        0.000254929067964
        -0.000263267395633
        0.000685790320882
        0.000410375187385
        0.000410375187385
        0.00041983092657
        0.00041983092657
        0.000410375187385
        0.000410375187385
        0.000616789242054
        0.000671966360433
        0.000342059995408
        0.000342059995408
        0.000349941636895
        0.000349941636895
        0.000342059995408
        0.000342059995408
        0.000671966360433
        0.000602086167553
        0.000306487949152
        0.000306487949152
        0.000313549950461
        0.000313549950461
        0.000306487949152
        0.000306487949152
        0.000602086167553
      )
    )

    (
      5.00479825598

      30
      (
        0.000878860171176
        -0.000878860171176
        0.000539446080977
        -0.000523646287423
        0.000254929067964
        -0.000263267395633
        0.000685790320882
        0.000410375187385
        0.000410375187385
        0.00041983092657
        0.00041983092657
        0.000410375187385
        0.000410375187385
        0.000616789242054
        0.000671966360433
        0.000342059995408
        0.000342059995408
        0.000349941636895
        0.000349941636895
        0.000342059995408
        0.000342059995408
        0.000671966360433
        0.000602086167553
        0.000306487949152
        0.000306487949152
        0.000313549950461
        0.000313549950461
        0.000306487949152
        0.000306487949152
        0.000602086167553
      )
    )

    (
      5.00512670277

      30
      (
        0.000878860171176
        -0.000878860171176
        0.000499796489168
        -0.000485157989369
        0.000236191637401
        -0.000243917093273
        0.000899813038747
        0.000511354263788
        0.00036965774746
        0.000523136731875
        0.000414059134523
        0.000511354263788
        0.00040473339186
        0.000688434666802
        0.000622576453193
        0.000316918392437
        0.000316918392437
        0.00032422072882
        0.00032422072882
        0.000316918392437
        0.000316918392437
        0.000622576453193
        0.000557832493981
        0.000283960911684
        0.000283960911684
        0.000290503851906
        0.000290503851906
        0.000283960911684
        0.000283960911684
        0.000557832493981
      )
    )

    (
      5.00539548521

      30
      (
        0.000878860171176
        -0.000878860171176
        0.000515919398223
        -0.000500808675818
        0.000268252376612
        -0.000268252376612
        0.000861734287664
        0.000489714510986
        0.000354014380732
        0.000500998362528
        0.000396536767055
        0.000489714510986
        0.000387605675968
        0.000659301134406
        0.000584934817603
        0.000297757168818
        0.000297757168818
        0.000304617998164
        0.000304617998164
        0.000297757168818
        0.000297757168818
        0.000584934817603
        0.000633552880655
        0.000322505869651
        0.000322505869651
        0.00032993695097
        0.00032993695097
        0.000322505869651
        0.000322505869651
        0.000484722656278
      )
    )

    (
      5.0056867578

      30
      (
        0.000878860171176
        -0.000878860171176
        0.000531997454522
        -0.000502339204344
        0.000247180193839
        -0.000247180193839
        0.000823761468888
        0.000468134958398
        0.000338414532709
        0.000478921580508
        0.000379063145535
        0.000468134958398
        0.000370525608132
        0.000630248649372
        0.000672675479132
        0.000342420967553
        0.000342420967553
        0.000350310926449
        0.000350310926449
        0.000342420967553
        0.000342420967553
        0.000514654822058
        0.000583785037903
        0.000297171881127
        0.000297171881127
        0.000304019224454
        0.000304019224454
        0.000297171881127
        0.000297171881127
        0.000446645959489
      )
    )

    (
      5.00602567282

      30
      (
        0.000878860171176
        -0.000920293379753
        0.000531997454522
        -0.000502339204344
        0.000247180193839
        -0.000247180193839
        0.000823761468888
        0.000468134958398
        0.000338414532709
        0.000478921580508
        0.000379063145535
        0.000468134958398
        0.000370525608132
        0.000630248649372
        0.000672675479132
        0.000342420967553
        0.000342420967553
        0.000350310926449
        0.000350310926449
        0.000342420967553
        0.000342420967553
        0.000514654822058
        0.000583785037903
        0.000297171881127
        0.000297171881127
        0.000304019224454
        0.000304019224454
        0.000297171881127
        0.000297171881127
        0.000446645959489
      )
    )

    (
      5.00603539179

      30
      (
        0.000920293379753
        -0.000920293379753
        0.000514140338287
        -0.00050012574529
        0.000246091042857
        -0.000246091042857
        0.000829297815411
        0.000471281205762
        0.000340688953391
        0.000482140322738
        0.000381610757929
        0.000471281205762
        0.000373015841336
        0.000634484432485
        0.000669711466733
        0.000340912156805
        0.000340912156805
        0.000348767350146
        0.000348767350146
        0.000340912156805
        0.000340912156805
        0.000512387096653
        0.000581212703777
        0.000295862451592
        0.000295862451592
        0.000302679623445
        0.000302679623445
        0.000295862451592
        0.000295862451592
        0.000444677901781
      )
    )

    (
      5.0073676992

      30
      (
        0.000878860171176
        -0.000920293379753
        0.000526220365098
        -0.000511876491073
        0.000274090377687
        -0.000274090377687
        0.000799906623177
        0.000454578501067
        0.000328614576327
        0.000465052759445
        0.000368086068804
        0.000454578501067
        0.000359795765152
        0.000611997632715
        0.000632974412643
        0.000322211404366
        0.000322211404366
        0.000329635700706
        0.000329635700706
        0.000322211404366
        0.000322211404366
        0.000484280078302
        0.000495271719902
        0.000265938130644
        0.000367877037457
        0.00029788125088
        0.000376353547307
        0.000291172151483
        0.000367877037457
        0.000495271719902
      )
    )

    (
      5.00764336228

      30
      (
        0.000920293379753
        -0.000920293379753
        0.00057355051122
        -0.000557916497743
        0.000298743048862
        -0.000298743048862
        0.000582501904059
        0.00038913647298
        0.000281306566196
        0.000398102836222
        0.000315095663854
        0.00038913647298
        0.000307998848858
        0.000523893232319
        0.000689906400511
        0.000351192253193
        0.000351192253193
        0.000359284317363
        0.000359284317363
        0.000351192253193
        0.000351192253193
        0.000527837964675
        0.000539818233925
        0.000289857559494
        0.000400965217034
        0.00032467375848
        0.000410204134569
        0.000317361218632
        0.000400965217034
        0.000539818233925
      )
    )

    (
      5.00871335483

      30
      (
        0.000920293379753
        -0.000920293379753
        0.000592561183038
        -0.000559526574202
        0.000289677894764
        -0.000298418243058
        0.000579076093975
        0.000386847883631
        0.000279652146074
        0.000395761513899
        0.000313242523298
        0.000386847883631
        0.000306187446088
        0.000520812111543
        0.000694700674428
        0.000353632746365
        0.000353632746365
        0.000361781043629
        0.000361781043629
        0.000353632746365
        0.000353632746365
        0.000531505998171
        0.000539231321204
        0.000289542414362
        0.000400529271059
        0.000324320759735
        0.00040975814366
        0.000317016170383
        0.000400529271059
        0.000539231321204
      )
    )

    (
      5.00966679389

      30
      (
        0.000920293379753
        -0.000878860171176
        0.000595008039612
        -0.000577580896251
        0.000290874058606
        -0.000299650498326
        0.00057416008332
        0.00038356377583
        0.000277278066149
        0.000392401734693
        0.000310583281105
        0.00038356377583
        0.000303588097293
        0.000516390727349
        0.000697569294515
        0.000355092998293
        0.000355092998293
        0.000363274942235
        0.000363274942235
        0.000355092998293
        0.000355092998293
        0.000533700740222
        0.000541457963348
        0.000290738018766
        0.000402183172307
        0.00032565997399
        0.000411450153593
        0.000318325221874
        0.000402183172307
        0.000541457963348
      )
    )

    (
      5.01143964773

      30
      (
        0.000878860171176
        -0.000878860171176
        0.00060919685741
        -0.000591354138888
        0.00026953579755
        -0.000277668405493
        0.000545653149073
        0.000364519910443
        0.000263511265165
        0.000372919066402
        0.000295162882805
        0.000364519910443
        0.000288515008482
        0.000490752030167
        0.000599060309827
        0.000444968939637
        0.000321667829065
        0.000455221777449
        0.000360304913996
        0.000444968939637
        0.000352189863203
        0.000599060309827
        0.000501737090926
        0.00026940973747
        0.000372679374119
        0.000301769849261
        0.000381266537937
        0.000294973168007
        0.000372679374119
        0.000501737090926
      )
    )

    (
      5.01310374955

      30
      (
        0.000878860171176
        -0.000878860171176
        0.00061273128262
        -0.000594785044597
        0.000271099584536
        -0.000279279376069
        0.000538552090445
        0.000349262174939
        0.000269684711155
        0.000374134656257
        0.000302077851369
        0.000318993864745
        0.000295274233067
        0.000484365447511
        0.000602535925032
        0.000447550550849
        0.000323534074549
        0.000457862873355
        0.000362395323287
        0.000447550550849
        0.000354233190767
        0.000602535925032
        0.000504648058376
        0.000270972793084
        0.000374841577287
        0.000303520651074
        0.000383478561927
        0.000296684536981
        0.000374841577287
        0.000504648058376
      )
    )

    (
      5.01389334976

      30
      (
        0.000843394792453
        -0.000878860171176
        0.000611603581796
        -0.000593690372914
        0.00027282445018
        -0.000281056285472
        0.000540817768508
        0.000350731514047
        0.000270819269436
        0.000375708633405
        0.000303348686955
        0.000320335865667
        0.000296516445964
        0.000486403163432
        0.000597287396008
        0.000328708559611
        0.000326420077525
        0.000429635900324
        0.000365627978095
        0.00043740658088
        0.000357393037359
        0.000597287396008
        0.000507858871479
        0.00027269685202
        0.00037722649927
        0.000305451795101
        0.000385918436551
        0.00029857218637
        0.00037722649927
        0.000507858871479
      )
    )

    (
      5.01420792055

      30
      (
        0.000843394792453
        -0.000920293379753
        0.000598156826929
        -0.000580637458985
        0.000293391824982
        -0.000302244232374
        0.000567833814687
        0.000368251979038
        0.000284347792933
        0.00039447680705
        0.000318502187103
        0.000336337944451
        0.000311328647898
        0.00051070097887
        0.000534703702052
        0.000320832559436
        0.000259930513848
        0.000419341637132
        0.000291152030059
        0.000320832559436
        0.000284594491095
        0.000698880207774
        0.000546144749997
        0.000293254607599
        0.000405664415265
        0.000328478842529
        0.000415011610284
        0.000321080601795
        0.000405664415265
        0.000546144749997
      )
    )

    (
      5.01450908931

      30
      (
        0.000843394792453
        -0.000920293379753
        0.000586944034326
        -0.000569753076977
        0.000265716287164
        -0.000273733650376
        0.000590361578875
        0.000382861700282
        0.000295628769622
        0.000410126950204
        0.000331138176681
        0.000349681534959
        0.000323680040478
        0.000530962102679
        0.000565960202103
        0.000339587063793
        0.000275124944124
        0.000443854562425
        0.000308171537138
        0.000339587063793
        0.000301230672388
        0.000739733766793
        0.000494627126137
        0.000234826003242
        0.000401083546021
        0.00026303209478
        0.000410325190055
        0.000257107893564
        0.000301412005349
        0.000646498438964
      )
    )

    (
      5.01477978054

      30
      (
        0.000843394792453
        -0.000920293379753
        0.000587093775738
        -0.000569898432624
        0.000266085880561
        -0.000274114395383
        0.000590060731501
        0.000382666594534
        0.000295478117645
        0.000409917950125
        0.000330969429163
        0.000349503337774
        0.000323515093615
        0.000530691525189
        0.00056554278669
        0.000339336606475
        0.00027492202987
        0.000443527204185
        0.000307944249868
        0.000339336606475
        0.000301008504248
        0.000739188187308
        0.00049531511904
        0.000234229953898
        0.000402651652394
        0.000262364451055
        0.000431326231036
        0.000256455287
        0.000402651652394
        0.000647397674599
      )
    )

    (
      5.01502925357

      30
      (
        0.000843394792453
        -0.000920293379753
        0.00058777286731
        -0.000570557634338
        0.000265195221971
        -0.000273196863269
        0.000588696359987
        0.000381781771375
        0.000294794896571
        0.000408970114853
        0.000330204143088
        0.000348695196557
        0.000322767043873
        0.000529464430484
        0.000568427829815
        0.000336550486427
        0.000308555019301
        0.000439885628204
        0.000303073431703
        0.000336550486427
        0.000308555019301
        0.000742959059907
        0.00049365717062
        0.000233445925374
        0.000401303872677
        0.000261486249057
        0.000429882470053
        0.00025559686451
        0.000401303872677
        0.000645230666345
      )
    )

    (
      5.0158953246

      30
      (
        0.000843394792453
        -0.000920293379753
        0.000586209223
        -0.000569039787482
        0.000264489726664
        -0.000272470081301
        0.000591837897653
        0.000378008010026
        0.000330300581552
        0.000404927607515
        0.000324432676452
        0.000345248482873
        0.000330300581552
        0.000532289881028
        0.00056691564885
        0.000335655165662
        0.000307734174503
        0.000438715406342
        0.0003022671695
        0.000335655165662
        0.000307734174503
        0.000740982575841
        0.000492343901041
        0.000232824892296
        0.000400236289344
        0.000260790620681
        0.000428738859458
        0.000254916903585
        0.000400236289344
        0.000643514167819
      )
    )

    (
      5.01678603755

      30
      (
        0.000812517341058
        -0.000920293379753
        0.000586209223
        -0.000569039787482
        0.000264489726664
        -0.000272470081301
        0.000591837897653
        0.000378008010026
        0.000330300581552
        0.000404927607515
        0.000324432676452
        0.000345248482873
        0.000330300581552
        0.000532289881028
        0.00056691564885
        0.000335655165662
        0.000307734174503
        0.000438715406342
        0.0003022671695
        0.000335655165662
        0.000307734174503
        0.000740982575841
        0.000492343901041
        0.000232824892296
        0.000400236289344
        0.000260790620681
        0.000428738859458
        0.000254916903585
        0.000400236289344
        0.000643514167819
      )
    )

    (
      5.01708310911

      30
      (
        0.000812517341058
        -0.000920293379753
        0.000553367595843
        -0.000537160056143
        0.000249672025664
        -0.000257205291069
        0.000773289913835
        0.000344157985759
        0.000410462110254
        0.000403648608738
        0.000403170107622
        0.000344157985759
        0.000410462110254
        0.000591633551913
        0.00053515491968
        0.000316850511331
        0.000290493758239
        0.000414136932927
        0.000285333035247
        0.000316850511331
        0.000290493758239
        0.000699469968174
        0.000464760959326
        0.000219781173423
        0.000377813559585
        0.000246180157395
        0.000404719309411
        0.000240635507839
        0.000377813559585
        0.000607462103913
      )
    )

    (
      5.01739903987

      30
      (
        0.000812517341058
        -0.00096977708104
        0.000553367595843
        -0.000537160056143
        0.000249672025664
        -0.000257205291069
        0.000773289913835
        0.000344157985759
        0.000410462110254
        0.000403648608738
        0.000403170107622
        0.000344157985759
        0.000410462110254
        0.000591633551913
        0.00053515491968
        0.000316850511331
        0.000290493758239
        0.000414136932927
        0.000285333035247
        0.000316850511331
        0.000290493758239
        0.000699469968174
        0.000464760959326
        0.000219781173423
        0.000377813559585
        0.000246180157395
        0.000404719309411
        0.000240635507839
        0.000377813559585
        0.000607462103913
      )
    )

    (
      5.01755245453

      30
      (
        0.000812517341058
        -0.00096977708104
        0.000539880280144
        -0.000524067769365
        0.000225698359568
        -0.000225698359568
        0.000805143975378
        0.000358334854567
        0.000427370238871
        0.000420276069402
        0.000419777857433
        0.000358334854567
        0.000427370238871
        0.000616004659355
        0.000567715734785
        0.000336128874542
        0.000308168478593
        0.000439334563754
        0.000302693758026
        0.000336128874542
        0.000308168478593
        0.00074202832178
        0.000533049688764
        0.000192858592058
        0.000331532451243
        0.000216023774049
        0.000355142321683
        0.000211158328615
        0.000331532451243
        0.000533049688764
      )
    )

    (
      5.02194147449

      30
      (
        0.000785268075581
        -0.00103066373347
        0.000539880280144
        -0.000524067769365
        0.000225698359568
        -0.000225698359568
        0.000805143975378
        0.000358334854567
        0.000427370238871
        0.000420276069402
        0.000419777857433
        0.000358334854567
        0.000427370238871
        0.000616004659355
        0.000567715734785
        0.000336128874542
        0.000308168478593
        0.000439334563754
        0.000302693758026
        0.000336128874542
        0.000308168478593
        0.00074202832178
        0.000533049688764
        0.000192858592058
        0.000331532451243
        0.000216023774049
        0.000355142321683
        0.000211158328615
        0.000331532451243
        0.000533049688764
      )
    )

    (
      5.02234024815

      30
      (
        0.000785268075581
        -0.00103066373347
        0.000528827268785
        -0.000513338488781
        0.000199878064446
        -0.000199878064446
        0.000831248747588
        0.000369952962681
        0.000441226646018
        0.000433902465913
        0.000433388100672
        0.000369952962681
        0.000441226646018
        0.000635977064048
        0.000594399699722
        0.00035192771638
        0.000322653116544
        0.000459984313931
        0.000316921071329
        0.00035192771638
        0.000322653116544
        0.000776905385259
        0.000472067853075
        0.000188083208181
        0.000274676162346
        0.000210674795626
        0.000294237048714
        0.000154755092217
        0.000274676162346
        0.000401577560712
      )
    )

    (
      5.02280481269

      30
      (
        0.000785268075581
        -0.00103066373347
        0.000496172721104
        -0.000481640357561
        0.000187535796618
        -0.000187535796618
        0.000694982688869
        0.000445453230775
        0.000399201196292
        0.000522453594862
        0.000429315243363
        0.000445453230775
        0.000437080124305
        0.000694982688869
        0.000557696120913
        0.000330196536705
        0.000302729613728
        0.000431580748913
        0.000297351516493
        0.000330196536705
        0.000302729613728
        0.000728932265407
        0.000442918141766
        0.000176469260769
        0.000257715187809
        0.000197665840594
        0.000276068209276
        0.000145199122176
        0.000257715187809
        0.000376780553488
      )
    )

    (
      5.02288900162

      30
      (
        0.000785268075581
        -0.00096977708104
        0.000498364393311
        -0.000498364393311
        0.000188364171448
        -0.000188364171448
        0.000691022413895
        0.000442914869302
        0.000396926396455
        0.000519476456106
        0.000426868842263
        0.000442914869302
        0.000434589475968
        0.000691022413895
        0.000560159551562
        0.000331655066248
        0.000304066817594
        0.000433487108317
        0.000298664964466
        0.000331655066248
        0.000304066817594
        0.000732152072782
        0.0004448745802
        0.000177248752986
        0.000258853555943
        0.000198538961406
        0.000277287645565
        0.000145840489319
        0.000258853555943
        0.000378444851891
      )
    )

    (
      5.02474162009

      30
      (
        0.000785268075581
        -0.00096977708104
        0.000493017887989
        -0.000493017887989
        0.000186343380921
        -0.000186343380921
        0.000700683361895
        0.000503907998796
        0.000391345271237
        0.000515518892329
        0.000420866700603
        0.000460237527983
        0.000428478775583
        0.000700683361895
        0.000554150101321
        0.000328097036019
        0.000300804756981
        0.000428836613292
        0.000295460855498
        0.000328097036019
        0.000300804756981
        0.00072429746879
        0.000440101919186
        0.00017534720983
        0.000256076547929
        0.000196409014669
        0.000274312874709
        0.0001442758973
        0.000256076547929
        0.000374384855949
      )
    )

    (
      5.02500426658

      30
      (
        0.000812517341058
        -0.00096977708104
        0.00047644397616
        -0.000490819551132
        0.000185512487088
        -0.000185512487088
        0.000704655679659
        0.000506764756647
        0.000393563887887
        0.000518441474719
        0.000423252680294
        0.000462846708973
        0.000430907909689
        0.000704655679659
        0.000551679179632
        0.000326634071237
        0.000299463486816
        0.000426924456846
        0.000294143413465
        0.000326634071237
        0.000299463486816
        0.000721067870311
        0.000438139531424
        0.000174565347257
        0.000254934718134
        0.000195533238786
        0.00027308973024
        0.000143632579825
        0.000254934718134
        0.000372715496585
      )
    )

    (
      5.02502045408

      30
      (
        0.000812517341058
        -0.00096977708104
        0.000504355544077
        -0.000519573284879
        0.000196380384767
        -0.000196380384767
        0.000652698689096
        0.000519143014636
        0.00031911190608
        0.000531104948731
        0.000343184356388
        0.000519143014636
        0.00034939141684
        0.000853104614198
        0.000583998259442
        0.000345769309627
        0.00031700698798
        0.000451935017517
        0.000311375248209
        0.000345769309627
        0.00031700698798
        0.000763310265726
        0.000463807105998
        0.000184791927484
        0.000269869585727
        0.000206988183223
        0.00028908817483
        0.000152047022461
        0.000269869585727
        0.000394550327997
      )
    )

    (
      5.02580507747

      30
      (
        0.000812517341058
        -0.000920293379753
        0.000506326449481
        -0.000538664490539
        0.00019714779412
        -0.00019714779412
        0.000649029876445
        0.000516224917064
        0.000317318181322
        0.00052811961325
        0.000341255320633
        0.000516224917064
        0.000347427491262
        0.000848309321892
        0.000586280390251
        0.00034712049652
        0.00031824577834
        0.000453701075567
        0.000312592031026
        0.00034712049652
        0.00031824577834
        0.000766293106592
        0.000465619557437
        0.000185514051813
        0.000270924173966
        0.000207797045411
        0.000290217864893
        0.000152641187236
        0.000270924173966
        0.000396092139885
      )
    )

    (
      5.02616605205

      30
      (
        0.000812517341058
        -0.000920293379753
        0.000506326449481
        -0.000538664490539
        0.00019714779412
        -0.00019714779412
        0.000649029876445
        0.000516224917064
        0.000317318181322
        0.00052811961325
        0.000341255320633
        0.000516224917064
        0.000347427491262
        0.000848309321892
        0.000586280390251
        0.00034712049652
        0.00031824577834
        0.000453701075567
        0.000312592031026
        0.00034712049652
        0.00031824577834
        0.000766293106592
        0.000465619557437
        0.000185514051813
        0.000270924173966
        0.000207797045411
        0.000290217864893
        0.000152641187236
        0.000270924173966
        0.000396092139885
      )
    )

    (
      5.02681146861

      30
      (
        0.000843394792453
        -0.000920293379753
        0.000546638698924
        -0.000581551401406
        0.000212844132049
        -0.000212844132049
        0.000750227993819
        0.000456539111258
        0.00028062992641
        0.000467058545415
        0.000301799459197
        0.000456539111258
        0.000307258004881
        0.000750227993819
        0.00063295834152