// -*- C++ -*-
// File generated by PyFoam - sorry for the ugliness

FoamFile
{
 version 2.0;
 format ascii;
 class dictionary;
 location "constant";
 object graphDict;
}

edgeType straight;

tubeOptions
{
  useEffectiveDiameter false;
  outerInnerDiameterRatio 1.25;
}

vertexIndices
  26
  (
    0
    1
    2
    3
    4
    5
    6
    7
    8
    9
    10
    11
    12
    13
    14
    15
    16
    17
    18
    19
    20
    21
    22
    23
    24
    25
  );

edgeIndices
  30
  (
    0
    1
    2
    3
    4
    5
    6
    7
    8
    9
    10
    11
    12
    13
    14
    15
    16
    17
    18
    19
    20
    21
    22
    23
    24
    25
    26
    27
    28
    29
  );

adjacencyList
  30
  (

    (
      0
      2
    )

    (
      1
      9
    )

    (
      2
      10
    )

    (
      9
      17
    )

    (
      10
      18
    )

    (
      17
      25
    )

    (
      2
      3
    )

    (
      3
      4
    )

    (
      3
      5
    )

    (
      4
      6
    )

    (
      5
      7
    )

    (
      6
      8
    )

    (
      7
      8
    )

    (
      8
      9
    )

    (
      10
      11
    )

    (
      11
      12
    )

    (
      11
      13
    )

    (
      12
      14
    )

    (
      13
      15
    )

    (
      14
      16
    )

    (
      15
      16
    )

    (
      16
      17
    )

    (
      18
      19
    )

    (
      19
      20
    )

    (
      19
      21
    )

    (
      20
      22
    )

    (
      21
      23
    )

    (
      22
      24
    )

    (
      23
      24
    )

    (
      24
      25
    )
  );

vertexPositions
  26
  (

(0 5e-05 0)
(0.0001 5e-05 0)
(1.66667e-05 3.33333e-05 0)
(2.66667e-05 3.33333e-05 0)
(3.5e-05 4.16667e-05 0)
(3.5e-05 2.5e-05 0)
(6.5e-05 4.16667e-05 0)
(6.5e-05 2.5e-05 0)
(7.33333e-05 3.33333e-05 0)
(8.33333e-05 3.33333e-05 0)
(1.66667e-05 0 0)
(2.66667e-05 0 0)
(3.5e-05 8.33333e-06 0)
(3.5e-05 -8.33333e-06 0)
(6.5e-05 8.33333e-06 0)
(6.5e-05 -8.33333e-06 0)
(7.33333e-05 0 0)
(8.33333e-05 0 0)
(1.66667e-05 -3.33333e-05 0)
(2.66667e-05 -3.33333e-05 0)
(3.5e-05 -2.5e-05 0)
(3.5e-05 -4.16667e-05 0)
(6.5e-05 -2.5e-05 0)
(6.5e-05 -4.16667e-05 0)
(7.33333e-05 -3.33333e-05 0)
(8.33333e-05 -3.33333e-05 0)  );

segmentDiameters
  30
  (

    (
      7e-06
    )

    (
      7e-06
    )

    (
      7e-06
    )

    (
      7e-06
    )

    (
      7e-06
    )

    (
      7e-06
    )

    (
      4e-06
    )

    (
      4e-06
    )

    (
      4e-06
    )

    (
      4e-06
    )

    (
      4e-06
    )

    (
      4e-06
    )

    (
      4e-06
    )

    (
      4e-06
    )

    (
      4e-06
    )

    (
      4e-06
    )

    (
      4e-06
    )

    (
      4e-06
    )

    (
      4e-06
    )

    (
      4e-06
    )

    (
      4e-06
    )

    (
      4e-06
    )

    (
      4e-06
    )

    (
      4e-06
    )

    (
      4e-06
    )

    (
      4e-06
    )

    (
      4e-06
    )

    (
      4e-06
    )

    (
      4e-06
    )

    (
      4e-06
    )
  ); 	// ************************************************************************* //


