/*--------------------------------*- C++ -*----------------------------------*\
| =========                 |                                                 |
| \\      /  F ield         | OpenFOAM: The Open Source CFD Toolbox           |
|  \\    /   O peration     | Version:  2.1.1                                 |
|   \\  /    A nd           | Web:      www.OpenFOAM.org                      |
|    \\/     M anipulation  |                                                 |
\*---------------------------------------------------------------------------*/
FoamFile
{
    version     2.0;
    format      ascii;
    class       volScalarField;
    location    "0";
    object      kappa_O2;
}
// * * * * * * * * * * * * * * * * * * * * * * * * * * * * * * * * * * * * * //

#include "../../initialConditions"

dimensions      [0 2 -1 0 0 0 0];

// dummy value for internalField
internalField   uniform 0;

boundaryField
{
    entranceSides
    {
        type            calculated;
        value           $internalField;
    }

    ".*Symmetry"
    {
        type            symmetryPlane;
    }
}

// ************************************************************************* //


