// -*- C++ -*-
// File generated by PyFoam - sorry for the ugliness

FoamFile
{
 version 2.0;
 format ascii;
 class dictionary;
 location "constant";
 object edgeVelocities;
}

edgeVelocities
  2273
  (

    (
      0.0

      (
        0.00200255465777
        0.000927446252198
        0.000927446252198
        0.000927446252198
        0.000927446252198
        0.000927446252198
        0.000927446252198
        0.0018548925044
      )
    )

    (
      0.000436235373023

      (
        0.00200255465777
        0.000927446252198
        0.000927446252198
        0.000927446252198
        0.000927446252198
        0.000927446252198
        0.000927446252198
        0.00188820336214
      )
    )

    (
      0.000872470746046

      (
        0.00200255465777
        0.00094370549034
        0.000927835453503
        0.000911396634983
        0.000927835453503
        0.000927057050892
        0.000927835453503
        0.00188820336214
      )
    )

    (
      0.00241152844549

      (
        0.00196173202445
        0.000934124126603
        0.000937247787012
        0.00090214330038
        0.000954079235534
        0.000917644717383
        0.000937247787012
        0.0018548925044
      )
    )

    (
      0.00243916742292

      (
        0.00196173202445
        0.000934912826419
        0.000936473001093
        0.000902904998141
        0.000971224009228
        0.000918419503302
        0.000920653525182
        0.0018548925044
      )
    )

    (
      0.00247297544968

      (
        0.00196173202445
        0.000924739059071
        0.000946467287288
        0.000893079541554
        0.000981589167322
        0.000908425217108
        0.000946467287288
        0.00182355852332
      )
    )

    (
      0.00280953884271

      (
        0.00196173202445
        0.000924739059071
        0.000946467287288
        0.000893079541554
        0.000981589167322
        0.000908425217108
        0.000946467287288
        0.0018548925044
      )
    )

    (
      0.00323705096651

      (
        0.00196173202445
        0.000934310309272
        0.000937064888896
        0.00090232310887
        0.000971837861035
        0.000934310309272
        0.000937064888896
        0.00182355852332
      )
    )

    (
      0.00335634871294

      (
        0.00200255465777
        0.000944486150815
        0.000911407954684
        0.000912150568639
        0.000961470589726
        0.000944486150815
        0.000927068565098
        0.00182355852332
      )
    )

    (
      0.00400508453831

      (
        0.00196173202445
        0.000944486150815
        0.000911407954684
        0.000912150568639
        0.000961470589726
        0.000944486150815
        0.000927068565098
        0.00182355852332
      )
    )

    (
      0.00401623168594

      (
        0.00196173202445
        0.000943697369727
        0.000927843430855
        0.000911388792389
        0.00094450599241
        0.000943697369727
        0.000927843430855
        0.00182355852332
      )
    )

    (
      0.00401700661747

      (
        0.00196173202445
        0.000960215816177
        0.000929033816256
        0.000895465611874
        0.0009457177552
        0.000942485606937
        0.000929033816256
        0.00182355852332
      )
    )

    (
      0.00404228039817

      (
        0.00196173202445
        0.000950252127492
        0.000938640997871
        0.000886173804309
        0.000955497466198
        0.000932705895939
        0.000955497466198
        0.00179400212223
      )
    )

    (
      0.00409136240015

      (
        0.00200255465777
        0.000923535386782
        0.000947649724917
        0.0008774608059
        0.000964667975355
        0.000923535386782
        0.000964667975355
        0.00179400212223
      )
    )

    (
      0.00555787217818

      (
        0.00200255465777
        0.000933717125774
        0.000921808289624
        0.000887134584544
        0.000954486236363
        0.000933717125774
        0.000954486236363
        0.00179400212223
      )
    )

    (
      0.00556498621097

      (
        0.00200255465777
        0.000924340299425
        0.000930864089414
        0.000878225561974
        0.000963863062712
        0.000924340299425
        0.000981995428507
        0.00176605189462
      )
    )

    (
      0.00556693927784

      (
        0.00200255465777
        0.000923928055302
        0.000947263983683
        0.000877833884443
        0.000947263983683
        0.000923928055302
        0.00098241542784
        0.00176605189462
      )
    )

    (
      0.00580385018067

      (
        0.00200255465777
        0.000924739059071
        0.000946467287288
        0.000893079541554
        0.000946467287288
        0.000908425217108
        0.000981589167322
        0.00176605189462
      )
    )

    (
      0.00706071018453

      (
        0.00200255465777
        0.000915548191568
        0.000955496013527
        0.000884203334092
        0.000955496013527
        0.000899396490868
        0.0010105314052
        0.00173955940481
      )
    )

    (
      0.00711763239939

      (
        0.00200255465777
        0.000915968351573
        0.000972235010564
        0.000884609109431
        0.000938949413891
        0.000899809238595
        0.00101009488372
        0.00173955940481
      )
    )

    (
      0.0071937974329

      (
        0.00200255465777
        0.000931991028029
        0.000973421377803
        0.000869144105018
        0.000940095164468
        0.000898643800727
        0.00101132744937
        0.00173955940481
      )
    )

    (
      0.00726367880377

      (
        0.00200255465777
        0.000931991028029
        0.000973421377803
        0.000869144105018
        0.000940095164468
        0.000898643800727
        0.00101132744937
        0.00173955940481
      )
    )

    (
      0.00775763684522

      (
        0.00200255465777
        0.000942125114508
        0.0009464772212
        0.000878594819947
        0.000930488747871
        0.000908415283195
        0.00100099314156
        0.00173955940481
      )
    )

    (
      0.00790482219891

      (
        0.00200255465777
        0.000951851665588
        0.000937098692257
        0.000887665480801
        0.000921268646787
        0.000934275898857
        0.000991074420924
        0.00171439530257
      )
    )

    (
      0.00849089173423

      (
        0.00204658896299
        0.000925104898694
        0.000946107901648
        0.000878952015882
        0.000930125667091
        0.000925104898694
        0.00100060254966
        0.00171439530257
      )
    )

    (
      0.00859058137817

      (
        0.00204658896299
        0.000925104898694
        0.000946107901648
        0.000878952015882
        0.000930125667091
        0.000925104898694
        0.00100060254966
        0.00173955940481
      )
    )

    (
      0.00912457279912

      (
        0.00204658896299
        0.000925915943557
        0.000945311164883
        0.00089421613403
        0.000929342389292
        0.000909581339512
        0.000999759921842
        0.00173955940481
      )
    )

    (
      0.0094924463246

      (
        0.00204658896299
        0.000935487547466
        0.000935908419023
        0.000903460042944
        0.000920098480378
        0.000935487547466
        0.00098981558942
        0.00171439530257
      )
    )

    (
      0.0103346948547

      (
        0.00204658896299
        0.000951851665588
        0.000937098692257
        0.000887665480801
        0.000921268646787
        0.000934275898857
        0.000991074420924
        0.00171439530257
      )
    )

    (
      0.011063034291

      (
        0.00204658896299
        0.000961382300708
        0.000927909069279
        0.000896553436888
        0.000912234260553
        0.000961382300708
        0.000981355486998
        0.00169044622203
      )
    )

    (
      0.0111480371126

      (
        0.00204658896299
        0.000961382300708
        0.000927909069279
        0.000896553436888
        0.000912234260553
        0.000961382300708
        0.000981355486998
        0.00171439530257
      )
    )

    (
      0.0117911807613

      (
        0.00204658896299
        0.000962241365731
        0.000943729607048
        0.000897354572606
        0.000896647549627
        0.000962241365731
        0.000980479449242
        0.00171439530257
      )
    )

    (
      0.0120782828027

      (
        0.0020943184965
        0.00093511901774
        0.000953084344397
        0.00088846653703
        0.000905535585203
        0.000952710645376
        0.000990198470088
        0.00171439530257
      )
    )

    (
      0.0128610410985

      (
        0.00204658896299
        0.00093511901774
        0.000953084344397
        0.00088846653703
        0.000905535585203
        0.000952710645376
        0.000990198470088
        0.00173955940481
      )
    )

    (
      0.0129394445786

      (
        0.00204658896299
        0.000926323874878
        0.000961879487259
        0.000880110178135
        0.000913891944098
        0.000943750046699
        0.00102013177503
        0.00171439530257
      )
    )

    (
      0.0137163922756

      (
        0.00204658896299
        0.000926323874878
        0.000961879487259
        0.000880110178135
        0.000913891944098
        0.000943750046699
        0.00102013177503
        0.00173955940481
      )
    )

    (
      0.01456050429

      (
        0.00204658896299
        0.000926323874878
        0.000961879487259
        0.000880110178135
        0.000913891944098
        0.000943750046699
        0.00102013177503
        0.00176605189462
      )
    )

    (
      0.0149819713999

      (
        0.00204658896299
        0.000924324763621
        0.000963878598516
        0.000878210801241
        0.000930879093332
        0.000941713327801
        0.00100141306403
        0.00176605189462
      )
    )

    (
      0.0153919538062

      (
        0.00204658896299
        0.000924324763621
        0.000963878598516
        0.000878210801241
        0.000930879093332
        0.000941713327801
        0.00100141306403
        0.00179400212223
      )
    )

    (
      0.0157379371042

      (
        0.00204658896299
        0.000925536028128
        0.000962667334009
        0.000893849225448
        0.000929709297874
        0.000925536028128
        0.00100015463158
        0.00179400212223
      )
    )

    (
      0.0166667716909

      (
        0.00204658896299
        0.000934913218801
        0.000953290143336
        0.000902905377089
        0.000920653146234
        0.000952500974909
        0.000990412283059
        0.00176605189462
      )
    )

    (
      0.0170823751975

      (
        0.0020943184965
        0.000944866602501
        0.000926694825174
        0.000912517995119
        0.000911040528204
        0.00096264160346
        0.000980071303931
        0.00176605189462
      )
    )

    (
      0.0173107988881

      (
        0.0020943184965
        0.000944866602501
        0.000926694825174
        0.000912517995119
        0.000911040528204
        0.00096264160346
        0.000980071303931
        0.00176605189462
      )
    )

    (
      0.0174982212071

      (
        0.0020943184965
        0.00093605394872
        0.000935352009972
        0.000904007052792
        0.00091955147053
        0.000953663164446
        0.00100981243915
        0.00173955940481
      )
    )

    (
      0.0177835020775

      (
        0.00214634108282
        0.00090995086266
        0.000944941641735
        0.000894579414967
        0.000928979108355
        0.000943717676859
        0.00102016547131
        0.00173955940481
      )
    )

    (
      0.0178717295761

      (
        0.00214634108282
        0.00090995086266
        0.000944941641735
        0.000894579414967
        0.000928979108355
        0.000943717676859
        0.00102016547131
        0.00176605189462
      )
    )

    (
      0.0181556282907

      (
        0.00214634108282
        0.000908417638446
        0.000946474865949
        0.000893072090916
        0.000946474865949
        0.000942127557159
        0.00100099065065
        0.00176605189462
      )
    )

    (
      0.0181880697466

      (
        0.00214634108282
        0.000923904413067
        0.000947287208832
        0.000877811421704
        0.000947287208832
        0.000941285069537
        0.00100184978348
        0.00176605189462
      )
    )

    (
      0.0182076192397

      (
        0.00214634108282
        0.000923904413067
        0.000947287208832
        0.000877811421704
        0.000947287208832
        0.000941285069537
        0.00100184978348
        0.00176605189462
      )
    )

    (
      0.0183352737107

      (
        0.00214634108282
        0.000932884793255
        0.000938465256583
        0.000886343776554
        0.000938465256583
        0.000969212326779
        0.000992519697668
        0.00173955940481
      )
    )

    (
      0.0187087820797

      (
        0.00214634108282
        0.000932884793255
        0.000938465256583
        0.000886343776554
        0.000938465256583
        0.000969212326779
        0.000992519697668
        0.00176605189462
      )
    )

    (
      0.0189606745525

      (
        0.00214634108282
        0.000932884793255
        0.000938465256583
        0.000886343776554
        0.000938465256583
        0.000969212326779
        0.000992519697668
        0.00176605189462
      )
    )

    (
      0.0190154026517

      (
        0.00214634108282
        0.000934492721444
        0.00093688569476
        0.000902499275948
        0.00093688569476
        0.00095207256708
        0.000990849155033
        0.00176605189462
      )
    )

    (
      0.0191723262144

      (
        0.00214634108282
        0.000925484250802
        0.000945735241903
        0.000893799220779
        0.000945735241903
        0.000942894627464
        0.00102102224749
        0.00173955940481
      )
    )

    (
      0.0195458345834

      (
        0.00214634108282
        0.000925484250802
        0.000945735241903
        0.000893799220779
        0.000945735241903
        0.000942894627464
        0.00102102224749
        0.00176605189462
      )
    )

    (
      0.0203772840995

      (
        0.0020943184965
        0.000925484250802
        0.000945735241903
        0.000893799220779
        0.000945735241903
        0.000942894627464
        0.00102102224749
        0.00179400212223
      )
    )

    (
      0.0205235804055

      (
        0.00214634108282
        0.00093605394872
        0.00091955147053
        0.000904007052792
        0.000935352009972
        0.000953663164446
        0.00100981243915
        0.00179400212223
      )
    )

    (
      0.020611440684

      (
        0.00214634108282
        0.000927423734229
        0.000927886219588
        0.000895672303735
        0.000943829973995
        0.000944870596803
        0.00104137140192
        0.00176605189462
      )
    )

    (
      0.0206556346788

      (
        0.00214634108282
        0.000928228774884
        0.000927108740436
        0.000911853368881
        0.000943039135515
        0.000928228774884
        0.00104049883314
        0.00176605189462
      )
    )

    (
      0.0210610954563

      (
        0.00214634108282
        0.000928228774884
        0.000943039135515
        0.000911853368881
        0.000927108740436
        0.000928228774884
        0.00104049883314
        0.00176605189462
      )
    )

    (
      0.0212050277621

      (
        0.00214634108282
        0.000928228774884
        0.000943039135515
        0.000911853368881
        0.000927108740436
        0.000928228774884
        0.00104049883314
        0.00179400212223
      )
    )

    (
      0.021273728242

      (
        0.00214634108282
        0.000926289231021
        0.000944944462794
        0.000909948041602
        0.000944944462794
        0.000926289231021
        0.00102016851695
        0.00179400212223
      )
    )

    (
      0.0213515791924

      (
        0.00214634108282
        0.000942894627464
        0.000945735241903
        0.000893799220779
        0.000945735241903
        0.000925484250802
        0.00102102224749
        0.00179400212223
      )
    )

    (
      0.0220369843468

      (
        0.00214634108282
        0.000933904861283
        0.000954403348575
        0.000885277541078
        0.000954403348575
        0.000916660479008
        0.00105303749668
        0.00176605189462
      )
    )

    (
      0.022575979726

      (
        0.00220340747421
        0.000944870596803
        0.000927886219588
        0.000895672303735
        0.000943829973995
        0.000927423734229
        0.00104137140192
        0.00176605189462
      )
    )

    (
      0.0229021613276

      (
        0.00220340747421
        0.00095461842607
        0.000918645948248
        0.000904912575075
        0.000934430928213
        0.00095461842607
        0.00103100099862
        0.00173955940481
      )
    )

    (
      0.023919262947

      (
        0.00220340747421
        0.000955455629092
        0.000917852337395
        0.000921268823553
        0.000933623680843
        0.000937813315835
        0.00103011032514
        0.00173955940481
      )
    )

    (
      0.0243930075446

      (
        0.00220340747421
        0.000953915757849
        0.000919312029366
        0.000919784049874
        0.000951901484105
        0.000936301878032
        0.00100954949502
        0.00173955940481
      )
    )

    (
      0.0244497788227

      (
        0.00220340747421
        0.000963884292382
        0.000909862544621
        0.00092939590395
        0.000942117016736
        0.000963884292382
        0.000999172471495
        0.00171439530257
      )
    )

    (
      0.0255039254409

      (
        0.00220340747421
        0.000964301652089
        0.00090946691634
        0.000946495998637
        0.0009417073635
        0.000946495998637
        0.000998738009289
        0.00171439530257
      )
    )

    (
      0.025782033442

      (
        0.00226647781993
        0.000936703099983
        0.000918924543716
        0.000936703099983
        0.000951500262154
        0.000936703099983
        0.0010091239747
        0.00171439530257
      )
    )

    (
      0.0258172267149

      (
        0.00226647781993
        0.000936274488106
        0.000935135361246
        0.000936274488106
        0.000935135361246
        0.000936274488106
        0.0010095785437
        0.00171439530257
      )
    )

    (
      0.0259839661381

      (
        0.00226647781993
        0.000946067361174
        0.000925515249761
        0.000946067361174
        0.000925515249761
        0.000963864951021
        0.000999192605423
        0.00169044622203
      )
    )

    (
      0.027507398432

      (
        0.00220340747421
        0.000955669306327
        0.000916082697924
        0.000955669306327
        0.000916082697924
        0.000992884093206
        0.000989009157827
        0.00166761228265
      )
    )

    (
      0.0275247026523

      (
        0.00226647781993
        0.000928592364213
        0.000926300140183
        0.000945268375394
        0.000926300140183
        0.000982078138877
        0.0010000399785
        0.00166761228265
      )
    )

    (
      0.0275320415554

      (
        0.00226647781993
        0.000945268375394
        0.000926300140183
        0.000928592364213
        0.000926300140183
        0.000982078138877
        0.0010000399785
        0.00166761228265
      )
    )

    (
      0.0275381726354

      (
        0.00226647781993
        0.000944101681068
        0.000927446252198
        0.000927446252198
        0.000944101681068
        0.000980866012224
        0.000980866012224
        0.00166761228265
      )
    )

    (
      0.0280044733033

      (
        0.00226647781993
        0.000944101681068
        0.000927446252198
        0.000927446252198
        0.000944101681068
        0.000980866012224
        0.000980866012224
        0.00169044622203
      )
    )

    (
      0.0287516675193

      (
        0.00226647781993
        0.000954699022551
        0.000901544732493
        0.000937856640017
        0.000933504339586
        0.00099187602554
        0.000969855998908
        0.00169044622203
      )
    )

    (
      0.0290973760712

      (
        0.00226647781993
        0.000954318383052
        0.000901912340356
        0.000937482715594
        0.000951453391763
        0.000991480563531
        0.000951453391763
        0.00169044622203
      )
    )

    (
      0.0294047321742

      (
        0.00226647781993
        0.000954318383052
        0.000901912340356
        0.000937482715594
        0.000951453391763
        0.000991480563531
        0.000951453391763
        0.00171439530257
      )
    )

    (
      0.0301989727237

      (
        0.00226647781993
        0.000955117270003
        0.000901140804229
        0.000955117270003
        0.000950639476006
        0.000973085108368
        0.000950639476006
        0.00171439530257
      )
    )

    (
      0.0304664139082

      (
        0.00226647781993
        0.000945738958452
        0.000910198038374
        0.000945738958452
        0.000960194214046
        0.000963530370328
        0.000979164977505
        0.00169044622203
      )
    )

    (
      0.0306234854369

      (
        0.00226647781993
        0.000963113009337
        0.000910593667872
        0.000928652217898
        0.000960611575037
        0.000963113009337
        0.000979590584386
        0.00169044622203
      )
    )

    (
      0.0307640526702

      (
        0.00233680680006
        0.000935544891204
        0.00092004309987
        0.000919040417476
        0.000970580053926
        0.000953144530448
        0.000989756012655
        0.00169044622203
      )
    )

    (
      0.0311087956243

      (
        0.00233680680006
        0.000935544891204
        0.00092004309987
        0.000919040417476
        0.000970580053926
        0.000953144530448
        0.000989756012655
        0.00171439530257
      )
    )

    (
      0.0317801761666

      (
        0.00233680680006
        0.000935946107718
        0.00091965561947
        0.000935946107718
        0.000970171289655
        0.000935946107718
        0.00098933917234
        0.00171439530257
      )
    )

    (
      0.0319652976172

      (
        0.00233680680006
        0.000935946107718
        0.00091965561947
        0.000935946107718
        0.000970171289655
        0.000935946107718
        0.00098933917234
        0.00173955940481
      )
    )

    (
      0.0321887164802

      (
        0.00226647781993
        0.000935946107718
        0.00091965561947
        0.000935946107718
        0.000970171289655
        0.000935946107718
        0.00098933917234
        0.00173955940481
      )
    )

    (
      0.0322118103758

      (
        0.00226647781993
        0.000953144530448
        0.00092004309987
        0.000919040417476
        0.000970580053926
        0.000935544891204
        0.000989756012655
        0.00173955940481
      )
    )

    (
      0.0328094096316

      (
        0.00220340747421
        0.000953144530448
        0.00092004309987
        0.000919040417476
        0.000970580053926
        0.000935544891204
        0.000989756012655
        0.00176605189462
      )
    )

    (
      0.0333699712304

      (
        0.00214634108282
        0.000953144530448
        0.00092004309987
        0.000935544891204
        0.000970580053926
        0.000919040417476
        0.000989756012655
        0.00176605189462
      )
    )

    (
      0.0336665620531

      (
        0.00214634108282
        0.000953144530448
        0.00092004309987
        0.000935544891204
        0.000989756012655
        0.000919040417476
        0.000970580053926
        0.00176605189462
      )
    )

    (
      0.0343562143818

      (
        0.00214634108282
        0.000953144530448
        0.00092004309987
        0.000935544891204
        0.000989756012655
        0.000919040417476
        0.000970580053926
        0.00179400212223
      )
    )

    (
      0.0352013803358

      (
        0.00214634108282
        0.000963530370328
        0.000910198038374
        0.000945738958452
        0.000979164977505
        0.000945738958452
        0.000960194214046
        0.00176605189462
      )
    )

    (
      0.0352695246219

      (
        0.00214634108282
        0.000981736946944
        0.000910969670743
        0.000928269754217
        0.000979995077504
        0.000944939971847
        0.000961008231331
        0.00176605189462
      )
    )

    (
      0.0353769141304

      (
        0.00220340747421
        0.000953144530448
        0.00092004309987
        0.000919040417476
        0.000989756012655
        0.000935544891204
        0.000970580053926
        0.00176605189462
      )
    )

    (
      0.0354108597343

      (
        0.00220340747421
        0.000951893930777
        0.000937057939344
        0.000917834565052
        0.000971830653596
        0.000934317383627
        0.000971830653596
        0.00176605189462
      )
    )

    (
      0.0358385624286

      (
        0.00220340747421
        0.000951893930777
        0.000937057939344
        0.000917834565052
        0.000971830653596
        0.000934317383627
        0.000971830653596
        0.00179400212223
      )
    )

    (
      0.0364585665667

      (
        0.00220340747421
        0.000942121753759
        0.000946480461699
        0.000908412042696
        0.000981602830614
        0.000924725648069
        0.00100099656871
        0.00176605189462
      )
    )

    (
      0.0365317145278

      (
        0.00220340747421
        0.000942121753759
        0.000946480461699
        0.000924725648069
        0.000981602830614
        0.000908412042696
        0.00100099656871
        0.00176605189462
      )
    )

    (
      0.0366561140753

      (
        0.00220340747421
        0.000942121753759
        0.000946480461699
        0.000924725648069
        0.00100099656871
        0.000908412042696
        0.000981602830614
        0.00176605189462
      )
    )

    (
      0.0366601995169

      (
        0.00220340747421
        0.000942121753759
        0.000946480461699
        0.000924725648069
        0.00100099656871
        0.000908412042696
        0.000981602830614
        0.00179400212223
      )
    )

    (
      0.03697270395

      (
        0.00220340747421
        0.000941290686049
        0.000964293436266
        0.000923909925871
        0.000982433898325
        0.000907610711113
        0.000982433898325
        0.00179400212223
      )
    )

    (
      0.0381900248895

      (
        0.0020943184965
        0.000941290686049
        0.000964293436266
        0.000923909925871
        0.000982433898325
        0.000907610711113
        0.000982433898325
        0.00182355852332
      )
    )

    (
      0.0383961693028

      (
        0.0020943184965
        0.000951674009925
        0.000954101838564
        0.000934101523573
        0.000972050574449
        0.000934101523573
        0.000972050574449
        0.00179400212223
      )
    )

    (
      0.0396875235333

      (
        0.0020943184965
        0.000951674009925
        0.000954101838564
        0.000934101523573
        0.000972050574449
        0.000934101523573
        0.000972050574449
        0.00182355852332
      )
    )

    (
      0.0396956190502

      (
        0.0020943184965
        0.000951256696737
        0.00095451144614
        0.000951256696737
        0.000972467887637
        0.000917220131648
        0.000972467887637
        0.00182355852332
      )
    )

    (
      0.0399154678536

      (
        0.0020943184965
        0.000969646437176
        0.000954900729595
        0.000933302632542
        0.000972864494362
        0.000916837715762
        0.000972864494362
        0.00182355852332
      )
    )

    (
      0.0399731828179

      (
        0.0020943184965
        0.000980452503014
        0.000944499691332
        0.000943703670805
        0.000962267789891
        0.000943703670805
        0.000962267789891
        0.00179400212223
      )
    )

    (
      0.0400360309446

      (
        0.0020943184965
        0.000980452503014
        0.000962267789891
        0.000943703670805
        0.000944499691332
        0.000943703670805
        0.000962267789891
        0.00179400212223
      )
    )

    (
      0.0414759289629

      (
        0.00204658896299
        0.000980452503014
        0.000962267789891
        0.000943703670805
        0.000944499691332
        0.000943703670805
        0.000962267789891
        0.00182355852332
      )
    )

    (
      0.0415619918141

      (
        0.00200255465777
        0.000980452503014
        0.000962267789891
        0.000943703670805
        0.000944499691332
        0.000943703670805
        0.000962267789891
        0.00182355852332
      )
    )

    (
      0.0415906984652

      (
        0.00200255465777
        0.000981300362623
        0.000980431661825
        0.000944519751362
        0.000927035557317
        0.000944519751362
        0.000961436357079
        0.00182355852332
      )
    )

    (
      0.0425028780747

      (
        0.00196173202445
        0.00097112617456
        0.000990605849887
        0.000934726907147
        0.000936655640458
        0.000934726907147
        0.000990605849887
        0.00179400212223
      )
    )

    (
      0.0427704339406

      (
        0.00196173202445
        0.000970260618972
        0.000991471405475
        0.000933893793883
        0.000954309568254
        0.000933893793883
        0.000972262211988