// -*- C++ -*-
// File generated by PyFoam - sorry for the ugliness

FoamFile
{
 version 2.0;
 format ascii;
 class dictionary;
 location "constant";
 object graphDict;
}

edgeType              straight;

tubeOptions
{
    useEffectiveDiameter  false;
}

segmentDiameters
  (
    1(8e-06)
    1(8e-06)
    1(8e-06)
    1(8e-06)
    1(8e-06)
    1(8e-06)
    1(8e-06)
    1(8e-06)
  );

adjacencyList
  (

    (
      0
      1
    )

    (
      1
      2
    )

    (
      1
      3
    )

    (
      2
      4
    )

    (
      3
      5
    )

    (
      4
      6
    )

    (
      5
      6
    )

    (
      6
      7
    )
  );

vertexIndices
  (
    0
    1
    2
    3
    4
    5
    6
    7
  );

edgeIndices
  (
    0
    1
    2
    3
    4
    5
    6
    7
  );

vertexPositions
  (

(0 0 0)
(5e-05 0 0)
(8.5355e-05 3.5355e-05 0)
(8.5355e-05 -3.5355e-05 0)
(0.000135355 3.5355e-05 0)
(0.000135355 -3.5355e-05 0)
(0.00017071 0 0)
(0.00022071 0 0)  );

