/*--------------------------------*- C++ -*----------------------------------*\
| =========                 |                                                 |
| \\      /  F ield         | OpenFOAM: The Open Source CFD Toolbox           |
|  \\    /   O peration     | Version:  dev                                   |
|   \\  /    A nd           | Web:      www.OpenFOAM.org                      |
|    \\/     M anipulation  |                                                 |
\*---------------------------------------------------------------------------*/
FoamFile
{
    version     2.0;
    format      ascii;
    class       dictionary;
    object      topoSetDict;
}

// * * * * * * * * * * * * * * * * * * * * * * * * * * * * * * * * * * * * * //

actions
(
    {
        name    RBC;
        type    cellSet;
        action  clear;
    }
    {
        name    RBC;
        type    cellSet;
        action  add;
        source  boxToCell;
        sourceInfo
        {
            boxes  ((-3e-3 -3e-3 -3e-3) (3e-3 3e-3 3e-3));
        }
    }
    {
        name    non_RBC;
        type    cellSet;
        action  clear;
    }
    {
        name    non_RBC;
        type    cellSet;
        action  add;
        source  cellToCell;
        sourceInfo
        {
            set RBC;
        }
    }
    {
        name    non_RBC;
        type    cellSet;
        action  invert;
    }
);
