// -*- C++ -*-
// File generated by PyFoam - sorry for the ugliness

FoamFile
{
 version 2.0;
 format ascii;
 class dictionary;
 location "constant";
 object graphDict;
}

adjacencyList
  89
  (

    (
      0
      1
    )

    (
      0
      48
    )

    (
      0
      52
    )

    (
      2
      3
    )

    (
      3
      38
    )

    (
      3
      62
    )

    (
      4
      5
    )

    (
      4
      44
    )

    (
      4
      56
    )

    (
      5
      45
    )

    (
      5
      14
    )

    (
      6
      7
    )

    (
      6
      43
    )

    (
      6
      44
    )

    (
      8
      9
    )

    (
      8
      14
    )

    (
      8
      74
    )

    (
      9
      64
    )

    (
      9
      68
    )

    (
      10
      11
    )

    (
      11
      66
    )

    (
      11
      25
    )

    (
      12
      13
    )

    (
      13
      16
    )

    (
      13
      42
    )

    (
      17
      18
    )

    (
      18
      56
    )

    (
      18
      60
    )

    (
      19
      20
    )

    (
      20
      59
    )

    (
      20
      61
    )

    (
      21
      22
    )

    (
      22
      24
    )

    (
      22
      58
    )

    (
      23
      24
    )

    (
      24
      32
    )

    (
      25
      26
    )

    (
      25
      27
    )

    (
      26
      45
    )

    (
      26
      61
    )

    (
      27
      63
    )

    (
      27
      28
    )

    (
      28
      29
    )

    (
      28
      87
    )

    (
      29
      33
    )

    (
      29
      74
    )

    (
      30
      31
    )

    (
      30
      57
    )

    (
      14
      30
    )

    (
      34
      35
    )

    (
      35
      38
    )

    (
      35
      39
    )

    (
      36
      37
    )

    (
      36
      47
    )

    (
      38
      49
    )

    (
      39
      63
    )

    (
      39
      46
    )

    (
      40
      41
    )

    (
      41
      49
    )

    (
      41
      51
    )

    (
      43
      65
    )

    (
      43
      62
    )

    (
      44
      56
    )

    (
      45
      46
    )

    (
      46
      61
    )

    (
      47
      50
    )

    (
      49
      55
    )

    (
      50
      57
    )

    (
      53
      54
    )

    (
      53
      65
    )

    (
      53
      71
    )

    (
      54
      86
    )

    (
      54
      70
    )

    (
      62
      80
    )

    (
      63
      75
    )

    (
      65
      67
    )

    (
      67
      81
    )

    (
      67
      82
    )

    (
      69
      70
    )

    (
      70
      88
    )

    (
      72
      73
    )

    (
      73
      77
    )

    (
      73
      78
    )

    (
      74
      85
    )

    (
      75
      76
    )

    (
      75
      79
    )

    (
      78
      83
    )

    (
      78
      84
    )

    (
      14
      15
    )
  );

edgeIndices
  89
  (
    0
    1
    2
    3
    4
    5
    6
    7
    8
    9
    10
    11
    12
    13
    14
    15
    16
    17
    18
    19
    20
    21
    22
    23
    24
    25
    26
    27
    28
    29
    30
    31
    32
    33
    34
    35
    36
    37
    38
    39
    40
    41
    42
    43
    44
    45
    46
    47
    48
    49
    50
    51
    52
    53
    54
    55
    56
    57
    58
    59
    60
    61
    62
    63
    64
    65
    66
    67
    68
    69
    70
    71
    72
    73
    74
    75
    76
    77
    78
    79
    80
    81
    82
    83
    84
    85
    86
    87
    88
  );

edgePoints
  89
  (

    23
    (

(1.13634e-05 4.36448e-05 6.90132e-05)
(1.16588e-05 4.3921e-05 6.80745e-05)
(1.20142e-05 4.41429e-05 6.71423e-05)
(1.23681e-05 4.43643e-05 6.62093e-05)
(1.2721e-05 4.45839e-05 6.52755e-05)
(1.30715e-05 4.48027e-05 6.43407e-05)
(1.34207e-05 4.50202e-05 6.3405e-05)
(1.37689e-05 4.5237e-05 6.24688e-05)
(1.41171e-05 4.54534e-05 6.15326e-05)
(1.44664e-05 4.56703e-05 6.05968e-05)
(1.48184e-05 4.58883e-05 5.96624e-05)
(1.51749e-05 4.61087e-05 5.87302e-05)
(1.55381e-05 4.63328e-05 5.78014e-05)
(1.59108e-05 4.65622e-05 5.68778e-05)
(1.62969e-05 4.67991e-05 5.59616e-05)
(1.67011e-05 4.70464e-05 5.50559e-05)
(1.71299e-05 4.73079e-05 5.41657e-05)
(1.75921e-05 4.75887e-05 5.32985e-05)
(1.80995e-05 4.78959e-05 5.24663e-05)
(1.86653e-05 4.82372e-05 5.16869e-05)
(1.92966e-05 4.86165e-05 5.09789e-05)
(1.99866e-05 4.90281e-05 5.03494e-05)
(2.08329e-05 4.93376e-05 5.00132e-05)    )

    45
    (

(1.13634e-05 4.36448e-05 6.90132e-05)
(1.1613e-05 4.26947e-05 6.91498e-05)
(1.18471e-05 4.172e-05 6.91483e-05)
(1.20802e-05 4.07447e-05 6.91424e-05)
(1.23125e-05 3.97692e-05 6.91338e-05)
(1.25438e-05 3.87935e-05 6.91223e-05)
(1.27737e-05 3.78175e-05 6.91068e-05)
(1.30019e-05 3.68412e-05 6.90874e-05)
(1.32282e-05 3.58645e-05 6.90635e-05)
(1.34526e-05 3.48876e-05 6.90352e-05)
(1.36748e-05 3.39102e-05 6.90018e-05)
(1.38946e-05 3.29325e-05 6.89641e-05)
(1.41118e-05 3.19544e-05 6.89215e-05)
(1.43262e-05 3.09759e-05 6.88748e-05)
(1.45378e-05 2.9997e-05 6.88244e-05)
(1.47463e-05 2.90175e-05 6.87709e-05)
(1.49514e-05 2.80376e-05 6.87138e-05)
(1.51527e-05 2.7057e-05 6.86536e-05)
(1.53499e-05 2.60758e-05 6.85907e-05)
(1.55426e-05 2.50938e-05 6.85253e-05)
(1.57303e-05 2.41111e-05 6.84576e-05)
(1.59123e-05 2.31274e-05 6.83878e-05)
(1.60882e-05 2.21427e-05 6.8316e-05)
(1.62579e-05 2.11571e-05 6.82428e-05)
(1.64208e-05 2.01704e-05 6.81688e-05)
(1.65764e-05 1.91825e-05 6.80942e-05)
(1.67249e-05 1.81936e-05 6.80193e-05)
(1.68662e-05 1.72036e-05 6.79446e-05)
(1.7e-05 1.62125e-05 6.78704e-05)
(1.71264e-05 1.52204e-05 6.77971e-05)
(1.72453e-05 1.42272e-05 6.77252e-05)
(1.73564e-05 1.32331e-05 6.76551e-05)
(1.74598e-05 1.22379e-05 6.75868e-05)
(1.7555e-05 1.12418e-05 6.75207e-05)
(1.76407e-05 1.02447e-05 6.74569e-05)
(1.77178e-05 9.24678e-06 6.73955e-05)
(1.77866e-05 8.24811e-06 6.73357e-05)
(1.78462e-05 7.24872e-06 6.72782e-05)
(1.78958e-05 6.24868e-06 6.72227e-05)
(1.79356e-05 5.24809e-06 6.7169e-05)
(1.79662e-05 4.24709e-06 6.71169e-05)
(1.79882e-05 3.24578e-06 6.70667e-05)
(1.80024e-05 2.24423e-06 6.70182e-05)
(1.80125e-05 1.24149e-06 6.69701e-05)
(1.78027e-05 3.7952e-07 6.70132e-05)    )

    38
    (

(1.13634e-05 4.36448e-05 6.90132e-05)
(1.10299e-05 4.45611e-05 6.92493e-05)
(1.07001e-05 4.54992e-05 6.93882e-05)
(1.037e-05 4.6438e-05 6.95209e-05)
(1.00397e-05 4.73783e-05 6.96412e-05)
(9.70926e-06 4.832e-05 6.97491e-05)
(9.37883e-06 4.92629e-05 6.98471e-05)
(9.04838e-06 5.02063e-05 6.99393e-05)
(8.71809e-06 5.11499e-05 7.00311e-05)
(8.38791e-06 5.20929e-05 7.01283e-05)
(8.05763e-06 5.30347e-05 7.02366e-05)
(7.72702e-06 5.39743e-05 7.03611e-05)
(7.39651e-06 5.49113e-05 7.05048e-05)
(7.06628e-06 5.5845e-05 7.06688e-05)
(6.73678e-06 5.67751e-05 7.08532e-05)
(6.40802e-06 5.77014e-05 7.10576e-05)
(6.08036e-06 5.86237e-05 7.12806e-05)
(5.75397e-06 5.95422e-05 7.15205e-05)
(5.42887e-06 6.04568e-05 7.17765e-05)
(5.10537e-06 6.13677e-05 7.20474e-05)
(4.78364e-06 6.22752e-05 7.23316e-05)
(4.46368e-06 6.31799e-05 7.26262e-05)
(4.1453e-06 6.40832e-05 7.2927e-05)
(3.82828e-06 6.49866e-05 7.3229e-05)
(3.51218e-06 6.58921e-05 7.35254e-05)
(3.19663e-06 6.68022e-05 7.38083e-05)
(2.88121e-06 6.77189e-05 7.40685e-05)
(2.5658e-06 6.86445e-05 7.42954e-05)
(2.25017e-06 6.95799e-05 7.4477e-05)
(1.93521e-06 7.05248e-05 7.46016e-05)
(1.62254e-06 7.14767e-05 7.46608e-05)
(1.31273e-06 7.24313e-05 7.46493e-05)
(1.0064e-06 7.33835e-05 7.45661e-05)
(7.0518e-07 7.43287e-05 7.44135e-05)
(4.09768e-07 7.52637e-05 7.41988e-05)
(1.19644e-07 7.61881e-05 7.39366e-05)
(-1.73919e-07 7.7108e-05 7.36492e-05)
(5.55112e-23 7.78016e-05 7.30132e-05)    )

    68
    (

(9.69677e-05 5.54099e-05 5.00132e-05)
(9.71595e-05 5.63686e-05 4.99394e-05)
(9.73641e-05 5.73359e-05 5.01129e-05)
(9.7574e-05 5.82741e-05 5.03988e-05)
(9.7765e-05 5.91011e-05 5.09249e-05)
(9.78428e-05 5.96522e-05 5.17523e-05)
(9.77597e-05 5.99634e-05 5.27015e-05)
(9.75638e-05 6.01832e-05 5.36612e-05)
(9.72963e-05 6.03761e-05 5.46096e-05)
(9.69815e-05 6.05615e-05 5.55449e-05)
(9.66359e-05 6.07443e-05 5.64698e-05)
(9.62717e-05 6.09249e-05 5.7388e-05)
(9.5898e-05 6.11029e-05 5.83029e-05)
(9.55217e-05 6.12778e-05 5.92173e-05)
(9.51489e-05 6.14481e-05 6.0134e-05)
(9.47853e-05 6.16114e-05 6.10557e-05)
(9.44361e-05 6.17648e-05 6.19846e-05)
(9.41061e-05 6.19047e-05 6.29226e-05)
(9.38e-05 6.20283e-05 6.38709e-05)
(9.35222e-05 6.21326e-05 6.48302e-05)
(9.32773e-05 6.22151e-05 6.58005e-05)
(9.30692e-05 6.22738e-05 6.67811e-05)
(9.29021e-05 6.23068e-05 6.77707e-05)
(9.27795e-05 6.23129e-05 6.87673e-05)
(9.27051e-05 6.22915e-05 6.97684e-05)
(9.26825e-05 6.22426e-05 7.07711e-05)
(9.2715e-05 6.2167e-05 7.17719e-05)
(9.28061e-05 6.20655e-05 7.27667e-05)
(9.29594e-05 6.19398e-05 7.3751e-05)
(9.31784e-05 6.17923e-05 7.47197e-05)
(9.34663e-05 6.16264e-05 7.56672e-05)
(9.38265e-05 6.14466e-05 7.6587e-05)
(9.42613e-05 6.12586e-05 7.74722e-05)
(9.47723e-05 6.10696e-05 7.83155e-05)
(9.53591e-05 6.08871e-05 7.91094e-05)
(9.60196e-05 6.0719e-05 7.98464e-05)
(9.67484e-05 6.05727e-05 8.05212e-05)
(9.75373e-05 6.04541e-05 8.11305e-05)
(9.83762e-05 6.03676e-05 8.16753e-05)
(9.92543e-05 6.03155e-05 8.21593e-05)
(0.000100161 6.02978e-05 8.25899e-05)
(0.000101088 6.03137e-05 8.29762e-05)
(0.000102027 6.03605e-05 8.33292e-05)
(0.000102972 6.04322e-05 8.36607e-05)
(0.000103919 6.05213e-05 8.39812e-05)
(0.000104867 6.06199e-05 8.42986e-05)
(0.000105813 6.0719e-05 8.46195e-05)
(0.000106758 6.08087e-05 8.49486e-05)
(0.0001077 6.08804e-05 8.5288e-05)
(0.00010864 6.09266e-05 8.56381e-05)
(0.000109577 6.09416e-05 8.59988e-05)
(0.000110509 6.09217e-05 8.63709e-05)
(0.000111435 6.08655e-05 8.6756e-05)
(0.000112352 6.07738e-05 8.71548e-05)
(0.00011326 6.06497e-05 8.75648e-05)
(0.00011416 6.04962e-05 8.79822e-05)
(0.000115054 6.03167e-05 8.84024e-05)
(0.000115944 6.01138e-05 8.88217e-05)
(0.00011683 5.98902e-05 8.92384e-05)
(0.000117712 5.96485e-05 8.96522e-05)
(0.000118591 5.93912e-05 9.00635e-05)
(0.000119467 5.91208e-05 9.04743e-05)
(0.000120338 5.88391e-05 9.08865e-05)
(0.000121205 5.85479e-05 9.13007e-05)
(0.000122069 5.82489e-05 9.17173e-05)
(0.000122929 5.79437e-05 9.21364e-05)
(0.000123786 5.76344e-05 9.25576e-05)
(0.000124619 5.73075e-05 9.30132e-05)    )

    (

(0.000124619 5.73075e-05 9.30132e-05)
(0.00012532 5.74995e-05 9.2215e-05)
(0.000126262 5.74792e-05 9.16463e-05)
(0.000127201 5.74619e-05 9.10742e-05)
(0.000128139 5.74447e-05 9.05021e-05)
(0.000129078 5.74276e-05 8.993e-05)
(0.000130016 5.7408e-05 8.93604e-05)
(0.000130932 5.7181e-05 8.90132e-05)    )

    55
    (

(0.000124619 5.73075e-05 9.30132e-05)
(0.000124805 5.68761e-05 9.39274e-05)
(0.000124469 5.67453e-05 9.48488e-05)
(0.000124048 5.6664e-05 9.57714e-05)
(0.000123648 5.65729e-05 9.66936e-05)
(0.000123242 5.64884e-05 9.76158e-05)
(0.000122836 5.64073e-05 9.8538e-05)
(0.000122428 5.63315e-05 9.94601e-05)
(0.00012202 5.62616e-05 0.000100382)
(0.000121609 5.61986e-05 0.000101304)
(0.000121197 5.61432e-05 0.000102225)
(0.000120783 5.60961e-05 0.000103146)
(0.000120367 5.60581e-05 0.000104067)
(0.000119949 5.603e-05 0.000104987)
(0.000119528 5.60124e-05 0.000105906)
(0.000119105 5.60057e-05 0.000106824)
(0.00011868 5.60108e-05 0.000107741)
(0.000118251 5.60281e-05 0.000108657)
(0.00011782 5.6058e-05 0.00010957)
(0.000117386 5.61011e-05 0.000110482)
(0.000116948 5.61575e-05 0.000111392)
(0.000116507 5.62272e-05 0.000112299)
(0.000116062 5.63105e-05 0.000113203)
(0.000115613 5.6407e-05 0.000114103)
(0.00011516 5.65162e-05 0.000115)
(0.000114703 5.66376e-05 0.000115894)
(0.00011424 5.67705e-05 0.000116783)
(0.000113773 5.69142e-05 0.000117667)
(0.000113299 5.7068e-05 0.000118547)
(0.000112819 5.72308e-05 0.000119422)
(0.000112331 5.74018e-05 0.000120291)
(0.000111835 5.75802e-05 0.000121153)
(0.00011133 5.77649e-05 0.000122009)
(0.000110814 5.79549e-05 0.000122857)
(0.000110285 5.81492e-05 0.000123697)
(0.000109744 5.83466e-05 0.000124528)
(0.000109188 5.85457e-05 0.000125348)
(0.000108616 5.87452e-05 0.000126158)
(0.000108027 5.89432e-05 0.000126955)
(0.000107419 5.91382e-05 0.000127739)
(0.000106792 5.93281e-05 0.000128508)
(0.000106144 5.95111e-05 0.000129262)
(0.000105475 5.96858e-05 0.00013)
(0.000104784 5.98509e-05 0.00013072)
(0.000104072 6.00061e-05 0.00013142)
(0.000103341 6.01515e-05 0.000132102)
(0.00010259 6.02878e-05 0.000132766)
(0.000101824 6.04156e-05 0.000133413)
(0.000101042 6.05366e-05 0.000134042)
(0.000100249 6.06521e-05 0.000134658)
(9.94451e-05 6.07637e-05 0.000135261)
(9.86339e-05 6.08728e-05 0.000135854)
(9.78175e-05 6.09799e-05 0.000136441)
(9.69999e-05 6.10871e-05 0.000137028)
(9.60839e-05 6.11027e-05 0.000137347)    )

    77
    (

(6.76754e-05 0.000114995 0.000154347)
(6.71018e-05 0.000114661 0.00015511)
(6.69483e-05 0.000114593 0.000156101)
(6.68088e-05 0.000114534 0.000157099)
(6.66678e-05 0.000114476 0.000158095)
(6.65309e-05 0.000114422 0.000159093)
(6.63974e-05 0.000114374 0.000160091)
(6.62688e-05 0.000114331 0.00016109)
(6.61465e-05 0.000114297 0.00016209)
(6.60318e-05 0.000114272 0.000163092)
(6.59264e-05 0.000114259 0.000164094)
(6.58319e-05 0.00011426 0.000165098)
(6.57502e-05 0.000114276 0.000166103)
(6.56832e-05 0.000114311 0.000167108)
(6.56331e-05 0.000114368 0.000168114)
(6.56023e-05 0.000114448 0.000169119)
(6.55934e-05 0.000114555 0.000170121)
(6.56092e-05 0.000114691 0.00017112)
(6.56525e-05 0.000114859 0.000172113)
(6.57262e-05 0.000115061 0.000173098)
(6.58336e-05 0.000115298 0.000174072)
(6.59768e-05 0.000115571 0.000175032)
(6.61579e-05 0.000115878 0.000175975)
(6.63779e-05 0.000116218 0.000176899)
(6.66363e-05 0.000116585 0.000177802)
(6.69301e-05 0.000116972 0.000178685)
(6.72538e-05 0.000117368 0.000179554)
(6.75996e-05 0.000117764 0.000180415)
(6.79589e-05 0.000118148 0.000181275)
(6.83239e-05 0.000118515 0.00018214)
(6.86891e-05 0.00011886 0.000183014)
(6.90509e-05 0.000119185 0.000183897)
(6.94078e-05 0.000119492 0.000184789)
(6.97589e-05 0.000119782 0.000185689)
(7.01044e-05 0.00012006 0.000186594)
(7.04448e-05 0.00012033 0.000187504)
(7.07817e-05 0.000120596 0.000188416)
(7.11167e-05 0.000120865 0.000189329)
(7.14522e-05 0.000121142 0.000190238)
(7.17908e-05 0.000121433 0.000191142)
(7.21356e-05 0.000121747 0.000192036)
(7.249e-05 0.000122095 0.000192914)
(7.28581e-05 0.000122488 0.000193766)
(7.32441e-05 0.000122942 0.000194579)
(7.36503e-05 0.000123474 0.000195333)
(7.40749e-05 0.000124092 0.000196006)
(7.45119e-05 0.000124799 0.000196576)
(7.49534e-05 0.00012558 0.000197035)
(7.53929e-05 0.000126415 0.000197388)
(7.58291e-05 0.000127284 0.000197657)
(7.62652e-05 0.00012817 0.000197858)
(7.67061e-05 0.000129066 0.000198)
(7.71568e-05 0.000129964 0.000198083)
(7.76216e-05 0.000130858 0.000198108)
(7.81038e-05 0.000131743 0.000198075)
(7.86055e-05 0.000132612 0.000197978)
(7.91275e-05 0.000133459 0.000197817)
(7.96692e-05 0.000134278 0.000197587)
(8.0229e-05 0.000135061 0.000197289)
(8.08036e-05 0.000135803 0.000196921)
(8.13884e-05 0.000136495 0.000196479)
(8.19772e-05 0.000137133 0.000195967)
(8.25654e-05 0.000137714 0.00019539)
(8.31506e-05 0.00013824 0.000194759)
(8.37321e-05 0.000138714 0.000194086)
(8.43103e-05 0.000139142 0.00019338)
(8.48861e-05 0.000139528 0.000192647)
(8.54606e-05 0.000139876 0.000191895)
(8.60348e-05 0.000140191 0.000191129)
(8.661e-05 0.000140479 0.000190352)
(8.71874e-05 0.000140742 0.000189569)
(8.77681e-05 0.000140987 0.000188782)
(8.83524e-05 0.000141217 0.000187993)
(8.89402e-05 0.000141436 0.000187203)
(8.95307e-05 0.00014165 0.000186413)
(9.01181e-05 0.000141893 0.000185608)
(9.07809e-05 0.000141687 0.000185013)    )

    85
    (

(6.76754e-05 0.000114995 0.000154347)
(6.8579e-05 0.000115074 0.000153923)
(6.94942e-05 0.000115071 0.000153512)
(7.04104e-05 0.000115069 0.000153103)
(7.13248e-05 0.000115063 0.000152691)
(7.22306e-05 0.000115053 0.000152261)
(7.31186e-05 0.000115036 0.000151794)
(7.39774e-05 0.000115014 0.000151277)
(7.47967e-05 0.000114988 0.000150699)
(7.55683e-05 0.00011496 0.000150059)
(7.62882e-05 0.000114932 0.000149362)
(7.69564e-05 0.000114906 0.000148614)
(7.75753e-05 0.000114883 0.000147825)
(7.81492e-05 0.000114862 0.000147003)
(7.86835e-05 0.000114845 0.000146154)
(7.91832e-05 0.000114829 0.000145285)
(7.96532e-05 0.000114815 0.000144399)
(8.00975e-05 0.000114803 0.0001435)
(8.05194e-05 0.00011479 0.00014259)
(8.09218e-05 0.000114777 0.000141671)
(8.13071e-05 0.000114763 0.000140745)
(8.1677e-05 0.000114747 0.000139813)
(8.20334e-05 0.000114728 0.000138876)
(8.23775e-05 0.000114707 0.000137934)
(8.27103e-05 0.000114682 0.000136988)
(8.30327e-05 0.000114652 0.000136038)
(8.33456e-05 0.000114618 0.000135086)
(8.36496e-05 0.000114578 0.000134131)
(8.39454e-05 0.000114532 0.000133174)
(8.42336e-05 0.000114481 0.000132214)
(8.45146e-05 0.000114423 0.000131253)
(8.4789e-05 0.000114358 0.000130291)
(8.50571e-05 0.000114287 0.000129327)
(8.53192e-05 0.000114208 0.000128362)
(8.55756e-05 0.000114123 0.000127396)
(8.58266e-05 0.000114031 0.000126429)
(8.60724e-05 0.000113932 0.000125462)
(8.63132e-05 0.000113826 0.000124494)
(8.65494e-05 0.000113714 0.000123525)
(8.67812e-05 0.000113596 0.000122557)
(8.70089e-05 0.000113473 0.000121588)
(8.72326e-05 0.000113344 0.000120618)
(8.74526e-05 0.00011321 0.000119649)
(8.76691e-05 0.000113071 0.000118679)
(8.78821e-05 0.000112929 0.00011771)
(8.80918e-05 0.000112784 0.000116739)
(8.82983e-05 0.000112636 0.000115769)
(8.85018e-05 0.000112487 0.000114798)
(8.87021e-05 0.000112338 0.000113827)
(8.88993e-05 0.000112189 0.000112855)
(8.90934e-05 0.000112042 0.000111882)
(8.92842e-05 0.000111898 0.000110908)
(8.94716e-05 0.000111758 0.000109932)
(8.96556e-05 0.000111624 0.000108955)
(8.98359e-05 0.000111498 0.000107977)
(9.00123e-05 0.00011138 0.000106996)
(9.01846e-05 0.000111272 0.000106014)
(9.03525e-05 0.000111175 0.00010503)
(9.05159e-05 0.00011109 0.000104044)
(9.06745e-05 0.00011102 0.000103056)
(9.08278e-05 0.000110964 0.000102066)
(9.09758e-05 0.000110925 0.000101075)
(9.11181e-05 0.000110903 0.000100083)
(9.12543e-05 0.000110899 9.90888e-05)
(9.13842e-05 0.000110913 9.80943e-05)
(9.15077e-05 0.000110947 9.70995e-05)
(9.16244e-05 0.000111001 9.61047e-05)
(9.17343e-05 0.000111076 9.51105e-05)
(9.18372e-05 0.00011117 9.41172e-05)
(9.19331e-05 0.000111286 9.31255e-05)
(9.2022e-05 0.000111421 9.21356e-05)
(9.21041e-05 0.000111576 9.11481e-05)
(9.21793e-05 0.000111751 9.01633e-05)
(9.22478e-05 0.000111945 8.91815e-05)
(9.23099e-05 0.000112156 8.8203e-05)
(9.23658e-05 0.000112385 8.72279e-05)
(9.24161e-05 0.000112629 8.62563e-05)
(9.2461e-05 0.000112888 8.52882e-05)
(9.25013e-05 0.000113159 8.43235e-05)
(9.25377e-05 0.000113441 8.33616e-05)
(9.25713e-05 0.000113732 8.24019e-05)
(9.25965e-05 0.000114034 8.14481e-05)
(9.2647e-05 0.000114322 8.04773e-05)
(9.25694e-05 0.000114698 7.95934e-05)
(9.20435e-05 0.000115374 7.90132e-05)    )

    71
    (

(6.76754e-05 0.000114995 0.000154347)
(6.71649e-05 0.000114952 0.000153512)
(6.63257e-05 0.000114987 0.000152941)
(6.55017e-05 0.000115019 0.000152362)
(6.46685e-05 0.000115054 0.000151797)
(6.38258e-05 0.000115092 0.000151246)
(6.29755e-05 0.000115136 0.000150707)
(6.2121e-05 0.000115184 0.000150175)
(6.12678e-05 0.000115238 0.000149642)
(6.04224e-05 0.000115297 0.000149097)
(5.95932e-05 0.000115358 0.000148528)
(5.87896e-05 0.000115422 0.000147923)
(5.80202e-05 0.000115484 0.000147276)
(5.72919e-05 0.000115545 0.000146582)
(5.66106e-05 0.000115603 0.000145842)
(5.59809e-05 0.000115656 0.000145058)
(5.54045e-05 0.000115705 0.000144233)
(5.48809e-05 0.000115751 0.000143373)
(5.44084e-05 0.000115794 0.000142485)
(5.39841e-05 0.000115834 0.000141571)
(5.36054e-05 0.000115872 0.000140639)
(5.32685e-05 0.00011591 0.00013969)
(5.29703e-05 0.000115948 0.000138728)
(5.27074e-05 0.000115988 0.000137756)
(5.24768e-05 0.000116031 0.000136776)
(5.22758e-05 0.000116077 0.00013579)
(5.21021e-05 0.000116128 0.000134799)
(5.19531e-05 0.000116185 0.000133804)
(5.18267e-05 0.000116249 0.000132806)
(5.17205e-05 0.000116319 0.000131807)
(5.16326e-05 0.000116397 0.000130806)
(5.15608e-05 0.000116482 0.000129804)
(5.15032e-05 0.000116577 0.000128803)
(5.14577e-05 0.00011668 0.000127802)
(5.14222e-05 0.000116792 0.000126801)
(5.13949e-05 0.000116914 0.000125801)
(5.13738e-05 0.000117045 0.000124802)
(5.13568e-05 0.000117185 0.000123805)
(5.1342e-05 0.000117335 0.000122808)
(5.13274e-05 0.000117494 0.000121813)
(5.13109e-05 0.000117662 0.00012082)
(5.12905e-05 0.000117839 0.000119828)
(5.12641e-05 0.000118024 0.000118838)
(5.12296e-05 0.000118217 0.00011785)
(5.11847e-05 0.000118416 0.000116863)
(5.1127e-05 0.00011862 0.000115878)
(5.10544e-05 0.000118826 0.000114894)
(5.09645e-05 0.000119033 0.000113912)
(5.0855e-05 0.000119237 0.000112932)
(5.0724e-05 0.000119434 0.000111952)
(5.05697e-05 0.00011962 0.000110974)
(5.03908e-05 0.000119791 0.000109997)
(5.01863e-05 0.00011994 0.000109022)
(4.99554e-05 0.000120063 0.000108049)
(4.9698e-05 0.000120154 0.000107079)
(4.94146e-05 0.000120211 0.000106114)
(4.91066e-05 0.000120228 0.000105154)
(4.87757e-05 0.000120204 0.000104203)
(4.84244e-05 0.000120138 0.000103261)
(4.80553e-05 0.000120029 0.00010233)
(4.76712e-05 0.000119879 0.00010141)
(4.72751e-05 0.000119691 0.000100503)
(4.68696e-05 0.000119468 9.96082e-05)
(4.6457e-05 0.000119214 9.87248e-05)
(4.60395e-05 0.000118933 9.78517e-05)
(4.5619e-05 0.00011863 9.69877e-05)
(4.51969e-05 0.000118309 9.61309e-05)
(4.47741e-05 0.000117975 9.52793e-05)
(4.43513e-05 0.000117633 9.44307e-05)
(4.39338e-05 0.000117246 9.36097e-05)
(4.35597e-05 0.000116513 9.30132e-05)    )

    (

(9.07809e-05 0.000141687 0.000185013)
(9.13887e-05 0.000140924 0.000185013)
(9.21518e-05 0.000140266 0.000185013)
(9.29193e-05 0.000139611 0.000185013)
(9.36871e-05 0.000138956 0.000185013)
(9.44549e-05 0.000138301 0.000185013)
(9.52227e-05 0.000137646 0.000185013)
(9.59905e-05 0.000136991 0.000185013)
(9.67584e-05 0.000136337 0.000185013)
(9.75279e-05 0.000135691 0.000185013)
(9.83565e-05 0.000135362 0.000185013)    )

    33
    (

(9.07809e-05 0.000141687 0.000185013)
(9.11814e-05 0.000142437 0.000184544)
(9.13445e-05 0.000143323 0.000184095)
(9.14904e-05 0.000144215 0.000183651)
(9.16157e-05 0.000145115 0.000183214)
(9.17124e-05 0.000146022 0.000182786)
(9.17724e-05 0.000146938 0.00018237)
(9.17883e-05 0.000147861 0.000181968)
(9.17532e-05 0.000148791 0.000181582)
(9.1662e-05 0.000149724 0.000181212)
(9.15126e-05 0.000150656 0.000180858)
(9.1305e-05 0.000151581 0.000180518)
(9.10411e-05 0.000152497 0.000180191)
(9.07255e-05 0.0001534 0.000179876)
(9.03628e-05 0.00015429 0.000179573)
(8.99582e-05 0.000155167 0.000179284)
(8.95177e-05 0.00015603 0.00017901)
(8.90468e-05 0.000156884 0.000178753)
(8.85505e-05 0.000157728 0.000178516)
(8.80337e-05 0.000158566 0.000178301)
(8.75009e-05 0.000159399 0.00017811)
(8.69563e-05 0.000160231 0.000177944)
(8.64036e-05 0.000161062 0.000177804)
(8.58466e-05 0.000161894 0.000177693)
(8.52885e-05 0.000162729 0.00017761)
(8.47319e-05 0.000163567 0.000177553)
(8.41791e-05 0.000164409 0.000177523)
(8.36317e-05 0.000165255 0.000177515)
(8.309e-05 0.000166104 0.000177526)
(8.2554e-05 0.000166957 0.000177551)
(8.20225e-05 0.000167813 0.000177588)
(8.14962e-05 0.00016867 0.000177631)
(8.10589e-05 0.000169551 0.000177763)    )

    (

(7.27258e-05 9.22234e-05 6.20132e-05)
(7.2614e-05 9.22768e-05 6.10065e-05)
(7.25208e-05 9.24152e-05 6.0007e-05)
(7.24341e-05 9.25726e-05 5.9009e-05)
(7.23528e-05 9.27353e-05 5.80117e-05)
(7.22795e-05 9.29113e-05 5.70159e-05)
(7.22157e-05 9.31051e-05 5.60228e-05)
(7.2162e-05 9.3324e-05 5.50343e-05)
(7.2117e-05 9.35773e-05 5.40536e-05)
(7.20736e-05 9.38785e-05 5.30866e-05)
(7.20103e-05 9.42466e-05 5.21443e-05)
(7.18613e-05 9.47068e-05 5.12549e-05)
(7.14476e-05 9.52498e-05 5.05157e-05)
(7.06705e-05 9.57307e-05 5.00956e-05)
(6.97367e-05 9.60808e-05 4.99211e-05)
(6.87643e-05 9.63553e-05 4.98527e-05)
(6.78016e-05 9.63981e-05 5.00132e-05)    )

    47
    (

(7.27258e-05 9.22234e-05 6.20132e-05)
(7.21287e-05 9.14431e-05 6.22871e-05)
(7.20329e-05 9.10627e-05 6.32118e-05)
(7.193e-05 9.06763e-05 6.41268e-05)
(7.18404e-05 9.03e-05 6.50584e-05)
(7.17488e-05 8.99213e-05 6.59862e-05)
(7.1659e-05 8.9543e-05 6.69147e-05)
(7.15707e-05 8.91648e-05 6.78434e-05)
(7.14844e-05 8.87866e-05 6.87723e-05)
(7.14004e-05 8.84083e-05 6.97014e-05)
(7.13191e-05 8.80301e-05 7.06307e-05)
(7.12407e-05 8.76518e-05 7.15602e-05)
(7.11655e-05 8.72736e-05 7.24901e-05)
(7.10941e-05 8.68953e-05 7.34202e-05)
(7.10266e-05 8.6517e-05 7.43506e-05)
(7.09635e-05 8.61386e-05 7.52813e-05)
(7.09051e-05 8.57602e-05 7.62123e-05)
(7.08518e-05 8.5382e-05 7.71436e-05)
(7.08036e-05 8.50038e-05 7.80753e-05)
(7.07608e-05 8.46255e-05 7.90072e-05)
(7.07237e-05 8.42475e-05 7.99394e-05)
(7.06925e-05 8.38695e-05 8.08718e-05)
(7.06669e-05 8.34916e-05 8.18045e-05)
(7.06469e-05 8.31136e-05 8.27373e-05)
(7.06328e-05 8.27358e-05 8.36702e-05)
(7.06242e-05 8.23581e-05 8.46032e-05)
(7.06212e-05 8.19805e-05 8.55364e-05)
(7.06235e-05 8.16032e-05 8.64696e-05)
(7.0631e-05 8.12259e-05 8.74029e-05)
(7.06435e-05 8.08489e-05 8.83361e-05)
(7.06607e-05 8.04719e-05 8.92694e-05)
(7.06823e-05 8.0095e-05 9.02025e-05)
(7.07082e-05 7.97182e-05 9.11356e-05)
(7.0738e-05 7.93415e-05 9.20686e-05)
(7.07714e-05 7.8965e-05 9.30016e-05)
(7.08082e-05 7.85887e-05 9.39345e-05)
(7.08481e-05 7.82124e-05 9.48674e-05)
(7.08908e-05 7.78362e-05 9.58001e-05)
(7.09359e-05 7.74601e-05 9.67327e-05)
(7.09833e-05 7.70841e-05 9.76653e-05)
(7.10328e-05 7.67081e-05 9.85978e-05)
(7.10841e-05 7.63322e-05 9.95302e-05)
(7.11367e-05 7.59562e-05 0.000100463)
(7.11912e-05 7.55806e-05 0.000101395)
(7.12435e-05 7.52033e-05 0.000102327)
(7.13089e-05 7.4833e-05 0.000103258)
(7.2424e-05 7.48426e-05 0.00010381)    )

    35
    (

(7.27258e-05 9.22234e-05 6.20132e-05)
(7.35213e-05 9.2432e-05 6.2653e-05)
(7.411e-05 9.31099e-05 6.31418e-05)
(7.46894e-05 9.38096e-05 6.36231e-05)
(7.5268e-05 9.45119e-05 6.4103e-05)
(7.58468e-05 9.52146e-05 6.4582e-05)
(7.6426e-05 9.59177e-05 6.50601e-05)
(7.70055e-05 9.66211e-05 6.55371e-05)
(7.75854e-05 9.7325e-05 6.60132e-05)
(7.81654e-05 9.80292e-05 6.64885e-05)
(7.87456e-05 9.87338e-05 6.69631e-05)
(7.93258e-05 9.94386e-05 6.74373e-05)
(7.99061e-05 0.000100144 6.7911e-05)
(8.04863e-05 0.000100849 6.83847e-05)
(8.10661e-05 0.000101554 6.88586e-05)
(8.16461e-05 0.000102259 6.93325e-05)
(8.22259e-05 0.000102964 6.9807e-05)
(8.28054e-05 0.000103669 7.0282e-05)
(8.33843e-05 0.000104374 7.07581e-05)
(8.39627e-05 0.000105078 7.12354e-05)
(8.45407e-05 0.000105782 7.1714e-05)
(8.51181e-05 0.000106485 7.21941e-05)
(8.56949e-05 0.000107187 7.26761e-05)
(8.62709e-05 0.000107889 7.31601e-05)
(8.68459e-05 0.00010859 7.36465e-05)
(8.74202e-05 0.000109289 7.41353e-05)
(8.79937e-05 0.000109988 7.46267e-05)
(8.85662e-05 0.000110685 7.51206e-05)
(8.91377e-05 0.000111382 7.56169e-05)
(8.97085e-05 0.000112078 7.61155e-05)
(9.02786e-05 0.000112772 7.66161e-05)
(9.08481e-05 0.000113466 7.71182e-05)
(9.14183e-05 0.00011416 7.76206e-05)
(9.19847e-05 0.000114853 7.81265e-05)
(9.20435e-05 0.000115374 7.90132e-05)    )

    198
    (

(0.000122093 0.000155097 0.000117013)
(0.00012171 0.000154266 0.000116692)
(0.000121477 0.000153382 0.000116275)
(0.000121252 0.000152499 0.000115852)
(0.000121038 0.000151617 0.000115422)
(0.000120838 0.000150735 0.000114984)
(0.000120655 0.000149853 0.00011454)
(0.000120494 0.000148969 0.00011409)
(0.000120356 0.000148085 0.000113634)
(0.000120245 0.0001472 0.000113172)
(0.000120162 0.000146315 0.000112702)
(0.000120107 0.000145433 0.000112225)
(0.00012008 0.000144554 0.000111739)
(0.00012008 0.000143681 0.000111243)
(0.000120105 0.000142815 0.000110734)
(0.000120153 0.000141959 0.000110211)
(0.000120221 0.000141115 0.000109671)
(0.000120304 0.000140284 0.000109112)
(0.000120401 0.00013947 0.000108532)
(0.000120508 0.000138672 0.00010793)
(0.000120619 0.000137894 0.000107305)
(0.000120733 0.000137134 0.000106658)
(0.000120845 0.000136394 0.000105987)
(0.000120952 0.000135674 0.000105295)
(0.000121051 0.000134974 0.000104581)
(0.000121141 0.000134294 0.000103848)
(0.000121219 0.000133631 0.000103097)
(0.000121286 0.000132984 0.000102331)
(0.000121341 0.000132351 0.000101553)
(0.000121383 0.00013173 0.000100764)
(0.000121414 0.00013112 9.99672e-05)
(0.000121432 0.000130517 9.91633e-05)
(0.00012144 0.000129922 9.83539e-05)
(0.000121437 0.000129333 9.75402e-05)
(0.000121424 0.000128749 9.67232e-05)
(0.000121401 0.000128168 9.59037e-05)
(0.00012137 0.000127591 9.50822e-05)
(0.00012133 0.000127016 9.42592e-05)
(0.000121282 0.000126445 9.34344e-05)
(0.000121228 0.000125876 9.26077e-05)
(0.000121167 0.000125313 9.17782e-05)
(0.000121102 0.000124755 9.09452e-05)
(0.000121034 0.000124205 9.01076e-05)
(0.000120962 0.000123663 8.92644e-05)
(0.00012089 0.000123133 8.84145e-05)
(0.000120817 0.000122614 8.75572e-05)
(0.000120746 0.000122109 8.66916e-05)
(0.000120678 0.000121619 8.58173e-05)
(0.000120613 0.000121145 8.49341e-05)
(0.000120552 0.000120686 8.40424e-05)
(0.000120497 0.000120243 8.31424e-05)
(0.000120448 0.000119815 8.22349e-05)
(0.000120406 0.000119401 8.13204e-05)
(0.000120371 0.000119001 8.03997e-05)
(0.000120344 0.000118613 7.94733e-05)
(0.000120326 0.000118238 7.85417e-05)
(0.000120316 0.000117873 7.76057e-05)
(0.000120316 0.000117518 7.66658e-05)
(0.000120325 0.000117173 7.57224e-05)
(0.000120345 0.000116837 7.4776e-05)
(0.000120376 0.000116508 7.38272e-05)
(0.000120419 0.000116187 7.28764e-05)
(0.000120474 0.000115872 7.1924e-05)
(0.000120542 0.000115563 7.09705e-05)
(0.000120624 0.000115259 7.00164e-05)
(0.00012072 0.00011496 6.90621e-05)
(0.000120831 0.000114666 6.81081e-05)
(0.000120959 0.000114375 6.71549e-05)
(0.000121104 0.000114089 6.62031e-05)
(0.000121267 0.000113805 6.52532e-05)
(0.000121449 0.000113525 6.43059e-05)
(0.000121652 0.000113247 6.33617e-05)
(0.000121875 0.000112973 6.24216e-05)
(0.000122122 0.000112702 6.14862e-05)
(0.000122394 0.000112435 6.05568e-05)
(0.000122692 0.000112171 5.96343e-05)
(0.000123019 0.000111912 5.87204e-05)
(0.000123377 0.000111659 5.78167e-05)
(0.000123771 0.000111414 5.69255e-05)
(0.000124203 0.000111178 5.60498e-05)