/*--------------------------------*- C++ -*----------------------------------*\
| =========                 |                                                 |
| \\      /  F ield         | OpenFOAM: The Open Source CFD Toolbox           |
|  \\    /   O peration     | Version:  2.3.0                                 |
|   \\  /    A nd           | Web:      www.OpenFOAM.org                      |
|    \\/     M anipulation  |                                                 |
\*---------------------------------------------------------------------------*/
FoamFile
{
    version     2.0;
    format      ascii;
    class       dictionary;
    location    "constant";
    object      graphDict;
}
// * * * * * * * * * * * * * * * * * * * * * * * * * * * * * * * * * * * * * //

edgeType              straight;

tubeOptions
{
    useEffectiveDiameter  false;
}

vertexIndices
8
(
 10 
 11
 12
 13
 14
 15
 16
 17
)
;

edgeIndices
8
(
 1
 2
 3
 4
 5
 6
 7
 8
)
;


adjacencyList
8
(
 (10 11)
 (11 12)
 (11 13)
 (12 14)
 (13 15)
 (14 16)
 (15 16)
 (16 17)
)
;

vertexPositions
8
(
 (0 0 0)
 (1.5 0 0)
 (2   1 0)
 (2  -1 0)
 (3   1 0)
 (3  -1 0)
 (3.5 0 0)
 (5   0 0)
)
;

segmentDiameters
8
(
 1(0.4)
 1(0.4)
 1(0.4)
 1(0.4)
 1(0.4)
 1(0.4)
 1(0.4)
 1(0.4)
)
;

// ************************************************************************* //
