/*--------------------------------*- p++ -*----------------------------------*\
| =========                 |                                                 |
| \\      /  F ield         | OpenFOAM: The Open Source CFD Toolbox           |
|  \\    /   O peration     | Version:  2.1.1                                 |
|   \\  /    A nd           | Web:      www.OpenFOAM.org                      |
|    \\/     M anipulation  |                                                 |
\*---------------------------------------------------------------------------*/
FoamFile
{
    version     2.0;
    format      ascii;
    class       dictionary;
    object      blockMeshDict;
}
// * * * * * * * * * * * * * * * * * * * * * * * * * * * * * * * * * * * * * //

x_l   -4.1734e-06;           // = -L_HALF
x_r    4.1734e-06;           // =  L_HALF
y_p    1.49857e-06;  // = Rp * cos(alpha/2)
z_p    6.54291e-08; // = Rp * sin(alpha/2)
mz_p  -6.54291e-08; // = -z_p

nx       83; // number of grid cells in x-direction
ny_p     15; // number of grid cells in y-direction in capillary
grad_y_p  1; // radial grading in capillary


vertices
(
    ($x_l      0   0)      // 0
    ($x_l   $y_p   $mz_p)  // 1
    ($x_r      0   0)      // 2
    ($x_r   $y_p   $mz_p)  // 3
    ($x_l      0   0)      // 4
    ($x_l   $y_p   $z_p)   // 5
    ($x_r      0   0)      // 6
    ($x_r   $y_p   $z_p)   // 7
);

blocks
(
    hex (0 2 3 1 4 6 7 5) ($nx $ny_p 1) simpleGrading (1 $grad_y_p 1)
);

edges
(
);

boundary
(
    frontWedge
    {
        type wedge;
        faces
        (
            (4 6 7 5)
        );
    }
    backWedge
    {
        type wedge;
        faces
        (
            (0 1 3 2)
        );
    }
    membrane
    {
        type patch;
        faces
        (
            (1 5 7 3)
            (0 4 5 1)
            (2 3 7 6)
        );
    }
    axis
    {
        type empty;
        faces
        (
            (0 2 6 4)
        );
    }
);

mergePatchPairs
(
);

// ************************************************************************* //
