// -*- C++ -*-
// File generated by PyFoam - sorry for the ugliness

FoamFile
{
 version 2.0;
 format ascii;
 class dictionary;
 location "constant";
 object graphDict;
}

edgeType straight;

tubeOptions
{
  useEffectiveDiameter no;
  outerInnerDiameterRatio 1.25;
}

vertexIndices
  (
    0
    1
    2
    3
    4
    5
    6
    7
    8
    9
    10
    11
    12
    13
    14
    15
    16
    17
    18
    19
  );

edgeIndices
  22
  (
    0
    1
    2
    3
    4
    5
    6
    7
    8
    9
    10
    11
    12
    13
    14
    15
    16
    17
    18
    19
    20
    21
  );

adjacencyList
  22
  (

    (
      0
      1
    )

    (
      2
      3
    )

    (
      1
      4
    )

    (
      1
      12
    )

    (
      2
      11
    )

    (
      2
      19
    )

    (
      4
      5
    )

    (
      5
      6
    )

    (
      5
      7
    )

    (
      6
      8
    )

    (
      7
      9
    )

    (
      8
      10
    )

    (
      9
      10
    )

    (
      10
      11
    )

    (
      12
      13
    )

    (
      13
      14
    )

    (
      13
      15
    )

    (
      14
      16
    )

    (
      15
      17
    )

    (
      16
      18
    )

    (
      17
      18
    )

    (
      18
      19
    )
  );

vertexPositions
  (

(-3e-05 0 0)
(5e-06 0 0)
(0.000155 0 0)
(0.00019 0 0)
(2.66667e-05 3e-05 0)
(3.26795e-05 3e-05 0)
(5e-05 3e-05 3e-05)
(5e-05 3e-05 -3e-05)
(0.00011 3e-05 3e-05)
(0.00011 3e-05 -3e-05)
(0.000127321 3e-05 0)
(0.000133333 3e-05 0)
(2.66667e-05 -3e-05 0)
(3.26795e-05 -3e-05 0)
(5e-05 -3e-05 3e-05)
(5e-05 -3e-05 -3e-05)
(0.00011 -3e-05 3e-05)
(0.00011 -3e-05 -3e-05)
(0.000127321 -3e-05 0)
(0.000133333 -3e-05 0)  );

segmentDiameters
  22
  (

    (
      7e-06
    )

    (
      7e-06
    )

    (
      5.5e-06
    )

    (
      5.5e-06
    )

    (
      5.5e-06
    )

    (
      5.5e-06
    )

    (
      5.5e-06
    )

    (
      4e-06
    )

    (
      4e-06
    )

    (
      4e-06
    )

    (
      4e-06
    )

    (
      4e-06
    )

    (
      4e-06
    )

    (
      5.5e-06
    )

    (
      5.5e-06
    )

    (
      4e-06
    )

    (
      4e-06
    )

    (
      4e-06
    )

    (
      4e-06
    )

    (
      4e-06
    )

    (
      4e-06
    )

    (
      5.5e-06
    )
  ); 	// ************************************************************************* //

