/*--------------------------------*- C++ -*----------------------------------*\
| =========                 |                                                 |
| \\      /  F ield         | OpenFOAM: The Open Source CFD Toolbox           |
|  \\    /   O peration     | Version:  2.1.1                                 |
|   \\  /    A nd           | Web:      www.OpenFOAM.org                      |
|    \\/     M anipulation  |                                                 |
\*---------------------------------------------------------------------------*/
FoamFile
{
    version     2.0;
    format      ascii;
    class       volScalarField;
    location    "0";
    object      kappaO2;
}
// * * * * * * * * * * * * * * * * * * * * * * * * * * * * * * * * * * * * * //

#include "../../initialConditions"

dimensions      [0 2 -1 0 0 0 0];

internalField   uniform $kappaO2Tissue;

boundaryField
{
    frontWedge
    {
        type            wedge;
    }
    backWedge
    {
        type            wedge;
    }
    outerWall
    {
        type            calculated;
        value           $internalField;
    }
    plasma
    {
        type            calculated;
        value           $internalField;
    }
    tissue
    {
        type            calculated;
        value           $internalField;
    }
    axis
    {
        type            empty;
    }
}

// ************************************************************************* //

