// -*- C++ -*-
// File generated by PyFoam - sorry for the ugliness

FoamFile
{
 version 2.0;
 format ascii;
 class dictionary;
 location "constant";
 object edgeVelocities;
}

edgeVelocities
  150
  (

    (
      12.008

      (
        -0.000789610963345
        -0.000187556574861
        -0.000693544691228
        -0.00038574986187
        -0.00114664812552
      )
    )

    (
      12.012

      (
        -0.000760918748861
        -0.000267707007128
        -0.000693544691228
        -0.000348954880038
        -0.00114664812552
      )
    )

    (
      12.016

      (
        -0.000784853134522
        -0.000172901269631
        -0.000693544691228
        -0.000392477731882
        -0.00115056353185
      )
    )

    (
      12.02

      (
        -0.000767077705021
        -0.000196489616689
        -0.000693544691228
        -0.000391198601823
        -0.00115056353186
      )
    )

    (
      12.024

      (
        -0.000782369892333
        -0.000179926517116
        -0.000693544691228
        -0.000398992551125
        -0.00115056353185
      )
    )

    (
      12.028

      (
        -0.000790183091852
        -0.000157822486945
        -0.000693544691228
        -0.000409393846471
        -0.00115056353185
      )
    )

    (
      12.032

      (
        -0.000757333228583
        -0.000250756804943
        -0.000693544691228
        -0.000365662577474
        -0.00115056353185
      )
    )

    (
      12.036

      (
        -0.00079302531158
        -0.000149781669553
        -0.000688198785166
        -0.000413177541837
        -0.00115056353185
      )
    )

    (
      12.04

      (
        -0.000789739265387
        -0.000159078099779
        -0.000688198785166
        -0.000408803003994
        -0.00115056353185
      )
    )

    (
      12.044

      (
        -0.0007989705956
        -0.000132962089173
        -0.000688198785166
        -0.000421092181012
        -0.00115056353185
      )
    )

    (
      12.048

      (
        -0.00079053861829
        -0.000156816680419
        -0.000688198785166
        -0.000409867139832
        -0.00115056353186
      )
    )

    (
      12.052

      (
        -0.000723130194602
        -0.000297720972747
        -0.000688198785166
        -0.000352819497962
        -0.00115453278368
      )
    )

    (
      12.056

      (
        -0.000754632998796
        -0.000206428128786
        -0.000688198785166
        -0.000396935769686
        -0.00115453278367
      )
    )

    (
      12.06

      (
        -0.000729143519161
        -0.000305128165716
        -0.000688198785166
        -0.0003492400527
        -0.00115453278368
      )
    )

    (
      12.064

      (
        -0.000750140060202
        -0.00024499681713
        -0.000683010998518
        -0.000378297871454
        -0.00115453278368
      )
    )

    (
      12.068

      (
        -0.000758000507287
        -0.000222485524301
        -0.000683010998518
        -0.000389176208334
        -0.00115453278367
      )
    )

    (
      12.072

      (
        -0.000762802112361
        -0.000208734355099
        -0.000688198785166
        -0.000385436705026
        -0.00115056353185
      )
    )

    (
      12.076

      (
        -0.000759826351974
        -0.000217256543817
        -0.000688198785166
        -0.000391703056155
        -0.00115056353185
      )
    )

    (
      12.08

      (
        -0.000744802951813
        -0.000260281597814
        -0.000688198785166
        -0.000370911667797
        -0.00115056353185
      )
    )

    (
      12.084

      (
        -0.000800594146742
        -0.00012836896144
        -0.000688198785166
        -0.000434657011437
        -0.00115056353186
      )
    )

    (
      12.088

      (
        -0.000786059410862
        -0.000169488638413
        -0.000688198785166
        -0.000414786375756
        -0.00115056353185
      )
    )

    (
      12.092

      (
        -0.000778090770149
        -0.000164949637938
        -0.000688198785166
        -0.000416979798259
        -0.00115453278368
      )
    )

    (
      12.096

      (
        -0.00077723173247
        -0.000167409809545
        -0.000688198785166
        -0.000415790947147
        -0.00115056353185
      )
    )

    (
      12.1

      (
        -0.000739561997036
        -0.000250102799894
        -0.000683010998518
        -0.000386811921515
        -0.00115056353186
      )
    )

    (
      12.104

      (
        -0.000727985445814
        -0.00028365080653
        -0.000683010998518
        -0.000370126520047
        -0.00115056353185
      )
    )

    (
      12.108

      (
        -0.000775654385569
        -0.000145509673062
        -0.000683010998518
        -0.000438832249608
        -0.00115056353185
      )
    )

    (
      12.112

      (
        -0.000757343294507
        -0.000198573888197
        -0.000683010998518
        -0.000412440287106
        -0.00115056353186
      )
    )

    (
      12.116

      (
        -0.000767533265998
        -0.000169044089147
        -0.000683010998518
        -0.000427127197055
        -0.00115056353185
      )
    )

    (
      12.12

      (
        -0.000756711741893
        -0.000200404081909
        -0.000683010998518
        -0.000411530023877
        -0.00115056353185
      )
    )

    (
      12.124

      (
        -0.000700471526659
        -0.000363384150676
        -0.000688198785166
        -0.000321088482976
        -0.00115056353186
      )
    )

    (
      12.128

      (
        -0.000760678880144
        -0.000188907602708
        -0.000688198785166
        -0.000405402372934
        -0.00115056353186
      )
    )

    (
      12.132

      (
        -0.000739171985491
        -0.00025123302509
        -0.000688198785166
        -0.000375284291934
        -0.00115056353186
      )
    )

    (
      12.136

      (
        -0.000749718893899
        -0.000220668848717
        -0.000688198785166
        -0.000390054097007
        -0.00115056353185
      )
    )

    (
      12.14

      (
        -0.000747876048651
        -0.000226009280717
        -0.000688198785166
        -0.000387473391455
        -0.00115056353185
      )
    )

    (
      12.144

      (
        -0.000732125482328
        -0.00027165328069
        -0.000688198785166
        -0.000365416426002
        -0.00115056353185
      )
    )

    (
      12.148

      (
        -0.000759264330952
        -0.000193006863773
        -0.000688198785166
        -0.000403421449707
        -0.00115056353186
      )
    )

    (
      12.152

      (
        -0.000738073327914
        -0.000254416855143
        -0.000688198785166
        -0.000373745740765
        -0.00115056353185
      )
    )

    (
      12.156

      (
        -0.000765098106943
        -0.000176101003646
        -0.000693544691228
        -0.000411591022334
        -0.00114664812552
      )
    )

    (
      12.16

      (
        -0.000773922735326
        -0.000176886344769
        -0.000693544691228
        -0.000411211514797
        -0.00114664812552
      )
    )

    (
      12.164

      (
        -0.000758243757594
        -0.000221788887225
        -0.000693544691228
        -0.000389512850607
        -0.00114664812552
      )
    )

    (
      12.168

      (
        -0.000741599591242
        -0.000244197999516
        -0.000693544691228
        -0.000378683891358
        -0.00115056353185
      )
    )

    (
      12.172

      (
        -0.000767446529913
        -0.000169295444032
        -0.000693544691228
        -0.000414879734835
        -0.00115056353185
      )
    )

    (
      12.176

      (
        -0.000738801692178
        -0.000252306108281
        -0.000693544691228
        -0.000374765736179
        -0.00115056353186
      )
    )

    (
      12.18

      (
        -0.000753348626241
        -0.00021015014739
        -0.000693544691228
        -0.000395137144766
        -0.00115056353185
      )
    )

    (
      12.184

      (
        -0.00073464032861
        -0.000264365438381
        -0.000693544691228
        -0.000368938196358
        -0.00115056353185
      )
    )

    (
      12.188

      (
        -0.000739350440267
        -0.000275896878058
        -0.000693544691228
        -0.00036336575383
        -0.00115056353186
      )
    )

    (
      12.192

      (
        -0.000756635273249
        -0.0002006256825
        -0.000693544691228
        -0.000389252330408
        -0.00115453278368
      )
    )

    (
      12.196

      (
        -0.000763602272104
        -0.000180435824622
        -0.000693544691228
        -0.000398752890857
        -0.00115453278367
      )
    )

    (
      12.2

      (
        -0.000755590635654
        -0.000203652966561
        -0.000693544691229
        -0.000387827808483
        -0.00115453278368
      )
    )

    (
      12.204

      (
        -0.000765404952219
        -0.000201280162029
        -0.000693544691229
        -0.000388944357843
        -0.00115453278368
      )
    )

    (
      12.208

      (
        -0.000790214835959
        -0.000157732680882
        -0.000693544691228
        -0.000409436105705
        -0.00115056353185
      )
    )

    (
      12.212

      (
        -0.000795258361898
        -0.00014346423052
        -0.000693544691228
        -0.000416150282495
        -0.00115056353185
      )
    )

    (
      12.216

      (
        -0.000809107248854
        -0.000104284863055
        -0.000693544691229
        -0.000434586566256
        -0.00115056353185
      )
    )

    (
      12.22

      (
        -0.000798951480327
        -0.000105207291181
        -0.000693544691228
        -0.00044584963612
        -0.00115056353185
      )
    )

    (
      12.224

      (
        -0.000773278641265
        -0.000178730945956
        -0.000693544691229
        -0.00041032013138
        -0.00115056353186
      )
    )

    (
      12.228

      (
        -0.000770969356518
        -0.00018534443557
        -0.000693544691228
        -0.000396443089802
        -0.00115056353186
      )
    )

    (
      12.232

      (
        -0.000755603932277
        -0.000229349001821
        -0.000693544691228
        -0.000375736255499
        -0.00114664812553
      )
    )

    (
      12.236

      (
        -0.000775433546545
        -0.000172559578953
        -0.000693544691228
        -0.000402459145182
        -0.00114664812553
      )
    )

    (
      12.24

      (
        -0.000793609217565
        -0.000176387628518
        -0.000693544691228
        -0.000400657814211
        -0.00114664812553
      )
    )

    (
      12.244

      (
        -0.000768040791626
        -0.000247811895633
        -0.000693544691228
        -0.000367048337051
        -0.00114664812552
      )
    )

    (
      12.248

      (
        -0.000779303272902
        -0.000188602175309
        -0.000693544691229
        -0.000394910124413
        -0.00115056353185
      )
    )

    (
      12.252

      (
        -0.000775177423483
        -0.000200274461392
        -0.000699057932261
        -0.000379911410465
        -0.00115056353185
      )
    )

    (
      12.256

      (
        -0.000756722366429
        -0.000252484972191
        -0.000693544691228
        -0.000355942920939
        -0.00115056353185
      )
    )

    (
      12.26

      (
        -0.000770774297991
        -0.000212731178829
        -0.000693544691228
        -0.000374192855009
        -0.00115056353185
      )
    )

    (
      12.264

      (
        -0.000769739366278
        -0.000243067002462
        -0.000693544691228
        -0.000360266466244
        -0.00115056353185
      )
    )

    (
      12.268

      (
        -0.000769486965156
        -0.000243772073833
        -0.000693544691228
        -0.000359942786289
        -0.00115056353186
      )
    )

    (
      12.272

      (
        -0.000764417882818
        -0.000257932331167
        -0.000693544691228
        -0.000353442179909
        -0.00114664812552
      )
    )

    (
      12.276

      (
        -0.000764806212075
        -0.00025684755056
        -0.000693544691228
        -0.000362796509904
        -0.00114664812552
      )
    )

    (
      12.28

      (
        -0.000750397823875
        -0.000297096745798
        -0.000688198785166
        -0.000343856806877
        -0.00114664812552
      )
    )

    (
      12.284

      (
        -0.000759438102598
        -0.000299535796189
        -0.000688198785166
        -0.000342709084798
        -0.00114664812553
      )
    )

    (
      12.288

      (
        -0.000774912059382
        -0.000256874235156
        -0.000693544691229
        -0.000362783953173
        -0.00114664812553
      )
    )

    (
      12.292

      (
        -0.000761160280857
        -0.000294787766066
        -0.000688198785166
        -0.000344943322773
        -0.00114664812553
      )
    )

    (
      12.296

      (
        -0.000773675256756
        -0.00026028408898
        -0.000688198785166
        -0.000361179408824
        -0.00114664812552
      )
    )

    (
      12.3

      (
        -0.000773608712649
        -0.000260467550491
        -0.000688198785166
        -0.000361093078985
        -0.00114664812552
      )
    )

    (
      12.304

      (
        -0.000734774544583
        -0.000367533005964
        -0.000688198785166
        -0.000310712247291
        -0.00114664812552
      )
    )

    (
      12.308

      (
        -0.000750993961492
        -0.000295431461731
        -0.000688198785166
        -0.000344640424674
        -0.00115056353186
      )
    )

    (
      12.312

      (
        -0.000742210431849
        -0.000319967863343
        -0.000688198785166
        -0.000333094550101
        -0.00115056353185
      )
    )

    (
      12.316

      (
        -0.000747928323777
        -0.000303995185107
        -0.000688198785166
        -0.000340610670126
        -0.00114664812552
      )
    )

    (
      12.32

      (
        -0.000756140539729
        -0.000281054723024
        -0.000688198785166
        -0.00035140555774
        -0.00114664812552
      )
    )

    (
      12.324

      (
        -0.00072813420633
        -0.000359289176815
        -0.000688198785166
        -0.00031459147208
        -0.00114664812552
      )
    )

    (
      12.328

      (
        -0.000720463005968
        -0.000355064971013
        -0.000688198785166
        -0.00031657921874
        -0.00115056353185
      )
    )

    (
      12.332

      (
        -0.000753895896585
        -0.00026048123218
        -0.000688198785166
        -0.000361086640915
        -0.00115056353185
      )
    )

    (
      12.336

      (
        -0.000760186223213
        -0.00024268550468
        -0.000688198785166
        -0.000369460616891
        -0.00115056353185
      )
    )

    (
      12.34

      (
        -0.000735310610075
        -0.000313060170258
        -0.000688198785166
        -0.000336345041319
        -0.00115056353185
      )
    )

    (
      12.344

      (
        -0.000728823673478
        -0.000331412119659
        -0.000688198785166
        -0.000327709328988
        -0.00115056353186
      )
    )

    (
      12.348

      (
        -0.000752278842271
        -0.000265055979986
        -0.000688198785166
        -0.000358933942846
        -0.00115056353186
      )
    )

    (
      12.352

      (
        -0.00075698653205
        -0.000251737631127
        -0.000688198785166
        -0.000365201038888
        -0.00115056353186
      )
    )

    (
      12.356

      (
        -0.00074952212612
        -0.00029954296875
        -0.000688198785166
        -0.00034270570967
        -0.00114664812553
      )
    )

    (
      12.36

      (
        -0.000726187417246
        -0.000338870253438
        -0.000683010998518
        -0.000332934556607
        -0.00114664812552
      )
    )

    (
      12.364

      (
        -0.000749737023699
        -0.000272246943722
        -0.000683010998518
        -0.000365129544813
        -0.00114664812553
      )
    )

    (
      12.368

      (
        -0.000714093292213
        -0.000348230048124
        -0.000683010998518
        -0.00032841153785
        -0.00115056353185
      )
    )

    (
      12.372

      (
        -0.000717674712053
        -0.000337973329915
        -0.000683010998518
        -0.000333367985123
        -0.00115056353186
      )
    )

    (
      12.376

      (
        -0.000745027357914
        -0.000259638928079
        -0.000683010998518
        -0.000371222230941
        -0.00115056353186
      )
    )

    (
      12.38

      (
        -0.000767049493878
        -0.000223268882662
        -0.000688198785166
        -0.000388797658945
        -0.00114664812552
      )
    )

    (
      12.384

      (
        -0.00075125730398
        -0.000267945975708
        -0.000688198785166
        -0.000367207940724
        -0.00114664812552
      )
    )

    (
      12.388

      (
        -0.000773740489474
        -0.000204339637587
        -0.000688198785166
        -0.000397945010292
        -0.00114664812553
      )
    )

    (
      12.392

      (
        -0.000753345871308
        -0.000262037288091
        -0.000688198785166
        -0.000370063249608
        -0.00114664812552
      )
    )

    (
      12.396

      (
        -0.000711408774805
        -0.000355918155024
        -0.000688198785166
        -0.000334183707236
        -0.00114664812552
      )
    )

    (
      12.4

      (
        -0.000738655248794
        -0.000277887815551
        -0.000688198785166
        -0.000372992795208
        -0.00114664812553
      )
    )

    (
      12.404

      (
        -0.000698768077207
        -0.000392119460382
        -0.000683010998518
        -0.000316178663892
        -0.00114664812553
      )
    )

    (
      12.408

      (
        -0.000724111167042
        -0.000294878185693
        -0.000683010998518
        -0.000364542482497
        -0.00115056353185
      )
    )

    (
      12.412

      (
        -0.000750184437263
        -0.000244869727026
        -0.000683010998518
        -0.000389414637159
        -0.00115056353185
      )
    )

    (
      12.416

      (
        -0.000748877252226
        -0.000248613334079
        -0.000683010998518
        -0.000387552720674
        -0.00115056353185
      )
    )

    (
      12.42

      (
        -0.000720903954735
        -0.000304172454578
        -0.000688198785166
        -0.000359919894652
        -0.00115056353185
      )
    )

    (
      12.424

      (
        -0.000703996226673
        -0.00035316982542
        -0.000688198785166
        -0.000335550613571
        -0.00115056353185
      )
    )

    (
      12.428

      (
        -0.000719451088943
        -0.000308382754372
        -0.000688198785166
        -0.000357825864353
        -0.00115056353185
      )
    )

    (
      12.432

      (
        -0.000720960645807
        -0.000304008167959
        -0.000688198785166
        -0.000360001604073
        -0.00114664812552
      )
    )

    (
      12.436

      (
        -0.000743489478289
        -0.000238721243796
        -0.000688198785166
        -0.000392472640344
        -0.00114664812553
      )
    )

    (
      12.44

      (
        -0.000752989535839
        -0.00023683629143
        -0.000688198785166
        -0.00039341013828
        -0.00114664812553
      )
    )

    (
      12.444

      (
        -0.000759413581826
        -0.000218438663561
        -0.000688198785166
        -0.000402560363221
        -0.00114664812553
      )
    )

    (
      12.448

      (
        -0.000767830113789
        -0.000194334816342
        -0.000693544691228
        -0.000402779731103
        -0.00114664812552
      )
    )

    (
      12.452

      (
        -0.000743407625692
        -0.000238958446685
        -0.000688198785166
        -0.000381215848151
        -0.00114664812552
      )
    )

    (
      12.456

      (
        -0.000705697357558
        -0.00034824007138
        -0.000688198785166
        -0.000328406694221
        -0.00114664812553
      )
    )

    (
      12.46

      (
        -0.000717649770316
        -0.000313602845235
        -0.000688198785166
        -0.000345144756199
        -0.00114664812552
      )
    )

    (
      12.464

      (
        -0.000684509441444
        -0.000409641117063
        -0.000688198785166
        -0.000298735308185
        -0.00114664812552
      )
    )

    (
      12.468

      (
        -0.000714999067391
        -0.000321624658044
        -0.000693544691228
        -0.000341432733301
        -0.00114664812552
      )
    )

    (
      12.472

      (
        -0.000743363135691
        -0.000264685070631
        -0.000693544691228
        -0.000368919057879
        -0.00114278521339
      )
    )

    (
      12.476

      (
        -0.000730400661212
        -0.00027694468523
        -0.000693544691229
        -0.000363001000489
        -0.00114664812552
      )
    )

    (
      12.48

      (
        -0.000724405496683
        -0.000294336637731
        -0.000693544691228
        -0.000354605420661
        -0.00114664812552
      )
    )

    (
      12.484

      (
        -0.00072696605672
        -0.000286908461522
        -0.00069905793226
        -0.000348793850232
        -0.00114664812553
      )
    )

    (
      12.488

      (
        -0.000687525994375
        -0.000400899365239
        -0.000699057932261
        -0.00029501133869
        -0.00114664812552
      )
    )

    (
      12.492

      (
        -0.000708491733901
        -0.000340142171201
        -0.000699057932261
        -0.000323601306886
        -0.00114664812552
      )
    )

    (
      12.496

      (
        -0.000719817731105
        -0.000307320251953
        -0.000693544691228
        -0.000339046023225
        -0.00114664812553
      )
    )

    (
      12.5

      (
        -0.000703511873503
        -0.000378533847964
        -0.000693544691228
        -0.000305535679679
        -0.00114664812553
      )
    )

    (
      12.504

      (
        -0.000726133859581
        -0.000313747437287
        -0.000693544691229
        -0.000336021640233
        -0.00114664812552
      )
    )

    (
      12.508

      (
        -0.000769011818747
        -0.000190950567828
        -0.000693544691228
        -0.000393805062396
        -0.00114664812552
      )
    )

    (
      12.512

      (
        -0.000769898416487
        -0.000188411467807
        -0.000693544691228
        -0.000394999863933
        -0.00114664812552
      )
    )

    (
      12.516

      (
        -0.000727781933607
        -0.000309027568738
        -0.000693544691228
        -0.000338242626469
        -0.00114664812552
      )
    )

    (
      12.52

      (
        -0.000745563098786
        -0.000284055238384
        -0.000693544691228
        -0.000349993632123
        -0.00114664812552
      )
    )

    (
      12.524

      (
        -0.000735457043787
        -0.000312645900121
        -0.000688198785166
        -0.000336539980704
        -0.00114278521339
      )
    )

    (
      12.528

      (
        -0.000708048979248
        -0.000365540170263
        -0.000688198785166
        -0.000311649998124
        -0.00114664812553
      )
    )

    (
      12.532

      (
        -0.000728162694196
        -0.00030793712019
        -0.000688198785166
        -0.000338755749068
        -0.00114664812552
      )
    )

    (
      12.536

      (
        -0.000722221810754
        -0.000324951033692
        -0.000688198785166
        -0.000330749664297
        -0.00114664812552
      )
    )

    (
      12.54

      (
        -0.000717026384089
        -0.000339830056444
        -0.000688198785166
        -0.00032374817593
        -0.00114664812552
      )
    )

    (
      12.544

      (
        -0.000743761547035
        -0.000263264044953
        -0.000688198785166
        -0.000359777157652
        -0.00114664812552
      )
    )

    (
      12.548

      (
        -0.000728968665948
        -0.00028080150582
        -0.000688198785166
        -0.00035152471189
        -0.00115056353185
      )
    )

    (
      12.552

      (
        -0.000728267266232
        -0.000283133657021
        -0.000693544691228
        -0.000350568246911
        -0.00115056353185
      )
    )

    (
      12.556

      (
        -0.000753411431732
        -0.000210190515946
        -0.000693544691228
        -0.000384856133157
        -0.00115056353186
      )
    )

    (
      12.56

      (
        -0.000751019072893
        -0.000242736246272
        -0.000688198785166
        -0.000369557583043
        -0.00115056353185
      )
    )

    (
      12.564

      (
        -0.000729719322605
        -0.000303800550431
        -0.000688198785166
        -0.00034085350088
        -0.00115453278368
      )
    )

    (
      12.568

      (
        -0.00073498371466
        -0.000288708052476
        -0.000688198785166
        -0.000347947928751
        -0.00115056353185
      )
    )

    (
      12.572

      (
        -0.000721008324375
        -0.000328774131727
        -0.000688198785166
        -0.000329114339363
        -0.00115056353185
      )
    )

    (
      12.576

      (
        -0.000715713104904
        -0.000343955008874
        -0.000688198785166
        -0.000321978367687
        -0.00115056353185
      )
    )

    (
      12.58

      (
        -0.00073740261466
        -0.000281475195949
        -0.000683010998518
        -0.000351207699565
        -0.00115056353186
      )
    )

    (
      12.584

      (
        -0.000740700220877
        -0.000272031282856
        -0.000683010998518
        -0.000355651637098
        -0.00114664812553
      )
    )

    (
      12.588

      (
        -0.000736558354133
        -0.00025880713939
        -0.000683010998518
        -0.000371624183759
        -0.00114664812552
      )
    )

    (
      12.592

      (
        -0.000762355513571
        -0.000184048840516
        -0.000683010998518
        -0.000407750316801
        -0.00114664812552
      )
    )

    (
      12.596

      (
        -0.000777082131408
        -0.000167838247433
        -0.000688198785166
        -0.000404680819835
        -0.00114664812553
      )
    )

    (
      12.6

      (
        -0.000765177616502
        -0.0002019312218
        -0.000683010998518
        -0.000388637994482
        -0.00114664812552
      )
    )

    (
      12.604

      (
        -0.000784001468605
        -0.000175310685784
        -0.000683010998518
        -0.0004011645815
        -0.00114664812552
      )
    )
  );

