// -*- C++ -*-
// File generated by PyFoam - sorry for the ugliness

FoamFile
{
 version 2.0;
 format ascii;
 class dictionary;
 location "constant";
 object RBCPaths;
}

RBCPath29
{
  edges
    72
    (
      17473
      17473
      17473
      17473
      17473
      17473
      17473
      17473
      17473
      17473
      17473
      17473
      17473
      17473
      17473
      17473
      17473
      17473
      17473
      17473
      17473
      17473
      17473
      17473
      16946
      16946
      16946
      16946
      16946
      16946
      16946
      16946
      16946
      16946
      16946
      16946
      16946
      16946
      16946
      16946
      16946
      16946
      16946
      16946
      16946
      16946
      16946
      16946
      16946
      16946
      16946
      16946
      16946
      16946
      16946
      16946
      16946
      16946
      16946
      16946
      16946
      16946
      16946
      16946
      16946
      16946
      16946
      16946
      16946
      16946
      16946
      16946
    );
  index 29;
  sCoords
    72
    (
      0.000106180690984
      0.000101594098482
      9.70075059802e-05
      9.24209134781e-05
      8.7834320976e-05
      8.32320668486e-05
      7.86298127212e-05
      7.40275585937e-05
      6.94253044663e-05
      6.48230503389e-05
      6.02207962115e-05
      5.56342037094e-05
      5.10476112073e-05
      4.64610187052e-05
      4.18744262031e-05
      3.7287833701e-05
      3.27012411989e-05
      2.81146486968e-05
      2.35280561947e-05
      1.89414636926e-05
      1.43392095652e-05
      9.73695543776e-06
      5.15036293567e-06
      5.63770433584e-07
      0.000140191732691
      0.000137309880667
      0.000134294297081
      0.000131253552188
      0.000128312309748
      0.000125397015054
      0.000122387899685
      0.000119359953557
      0.000116361865052
      0.000113457115383
      0.000110458167288
      0.00010760179412
      0.000104731095271
      0.00010175098584
      9.86827878643e-05
      9.56777586483e-05
      9.25827966904e-05
      8.95694132052e-05
      8.6723778106e-05
      8.37691571108e-05
      8.0974084802e-05
      7.80776401338e-05
      7.50769023848e-05
      7.20813933759e-05
      6.91977775569e-05
      6.63817926502e-05
      6.35039882945e-05
      6.06201457112e-05
      5.76461877981e-05
      5.46342296547e-05
      5.15965753274e-05
      4.85252548723e-05
      4.55516243695e-05
      4.27288349393e-05
      3.9858235858e-05
      3.71201980922e-05
      3.42602018227e-05
      3.12867492799e-05
      2.83651466351e-05
      2.54675246483e-05
      2.25596604214e-05
      1.98095564439e-05
      1.69755895083e-05
      1.40963185839e-05
      1.12822710899e-05
      8.37773565158e-06
      5.30168837659e-06
      2.22209471064e-06
    );
  times
    72
    (
      12.232
      12.236
      12.24
      12.244
      12.248
      12.252
      12.256
      12.26
      12.264
      12.268
      12.272
      12.276
      12.28
      12.284
      12.288
      12.292
      12.296
      12.3
      12.304
      12.308
      12.312
      12.316
      12.32
      12.324
      12.328
      12.332
      12.336
      12.34
      12.344
      12.348
      12.352
      12.356
      12.36
      12.364
      12.368
      12.372
      12.376
      12.38
      12.384
      12.388
      12.392
      12.396
      12.4
      12.404
      12.408
      12.412
      12.416
      12.42
      12.424
      12.428
      12.432
      12.436
      12.44
      12.444
      12.448
      12.452
      12.456
      12.46
      12.464
      12.468
      12.472
      12.476
      12.48
      12.484
      12.488
      12.492
      12.496
      12.5
      12.504
      12.508
      12.512
      12.516
    );
}

RBCPath28
{
  edges
    95
    (
      17265
      17265
      17265
      17265
      17265
      17265
      17265
      17265
      17265
      17265
      17265
      17265
      17265
      17265
      17265
      17265
      17265
      17265
      17265
      17265
      17265
      17265
      17265
      17265
      17265
      17265
      17265
      17265
      17265
      17265
      17265
      17265
      17265
      17265
      17265
      17265
      17265
      17265
      17265
      17265
      17265
      17265
      17265
      17265
      17265
      17265
      17265
      17265
      17282
      17282
      17282
      17282
      17282
      17282
      17282
      17282
      17282
      17282
      17282
      17282
      17282
      17282
      17282
      17282
      17282
      17282
      17282
      17282
      17282
      17282
      17282
      17282
      17282
      17282
      17282
      17282
      17282
      17282
      17282
      17282
      17282
      17282
      17282
      17282
      17282
      17282
      17282
      17282
      17282
      17282
      16946
      16946
      16946
      16946
      16946
    );
  index 28;
  sCoords
    95
    (
      0.000129776373347
      0.000127002194582
      0.000124228015817
      0.000121453837053
      0.000118679658288
      0.000115905479523
      0.000113131300758
      0.000110335069029
      0.000107560890264
      0.000104786711499
      0.000102012532734
      9.92383539691e-05
      9.64641752042e-05
      9.36899964393e-05
      9.09372012986e-05
      8.81844061579e-05
      8.5410227393e-05
      8.26574322524e-05
      7.99046371117e-05
      7.7151841971e-05
      7.43990468304e-05
      7.16462516897e-05
      6.88934565491e-05
      6.61406614084e-05
      6.33878662677e-05
      6.06350711271e-05
      5.78822759864e-05
      5.51294808457e-05
      5.23766857051e-05
      4.96238905644e-05
      4.68710954237e-05
      4.41183002831e-05
      4.13655051424e-05
      3.86127100017e-05
      3.58806660077e-05
      3.31486220136e-05
      3.04165780195e-05
      2.76845340255e-05
      2.49524900314e-05
      2.21996948907e-05
      1.94468997501e-05
      1.66941046094e-05
      1.39413094687e-05
      1.11885143281e-05
      8.43571918741e-06
      5.70367519333e-06
      2.97163119926e-06
      2.39587205188e-07
      5.79227005539e-05
      5.64830209753e-05
      5.5140818521e-05
      5.37095150636e-05
      5.22695086473e-05
      5.06996180859e-05
      4.91259775328e-05
      4.75157360799e-05
      4.59046171555e-05
      4.43797537629e-05
      4.3066126986e-05
      4.16855479612e-05
      4.04906067285e-05
      3.91248757953e-05
      3.76491995637e-05
      3.61971955618e-05
      3.47787738791e-05
      3.33835984782e-05
      3.22035531234e-05
      3.09091478959e-05
      2.9552963803e-05
      2.83308210843e-05
      2.69867345234e-05
      2.54115142738e-05
      2.3831514818e-05
      2.24785443122e-05
      2.10785697837e-05
      1.97324098609e-05
      1.84858098684e-05
      1.71307868721e-05
      1.58077882149e-05
      1.45127955112e-05
      1.30736868806e-05
      1.1667588033e-05
      1.02653150454e-05
      8.72589051274e-06
      7.24766018057e-06
      5.88424617705e-06
      4.49245446205e-06
      3.1759971046e-06
      1.88808363385e-06
      4.83252835587e-07
      0.000143702454711
      0.000140756221295
      0.00013770679924
      0.000134598470715
      0.000131537760249
    );
  times
    95
    (
      12.228
      12.232
      12.236
      12.24
      12.244
      12.248
      12.252
      12.256
      12.26
      12.264
      12.268
      12.272
      12.276
      12.28
      12.284
      12.288
      12.292
      12.296
      12.3
      12.304
      12.308
      12.312
      12.316
      12.32
      12.324
      12.328
      12.332
      12.336
      12.34
      12.344
      12.348
      12.352
      12.356
      12.36
      12.364
      12.368
      12.372
      12.376
      12.38
      12.384
      12.388
      12.392
      12.396
      12.4
      12.404
      12.408
      12.412
      12.416
      12.42
      12.424
      12.428
      12.432
      12.436
      12.44
      12.444
      12.448
      12.452
      12.456
      12.46
      12.464
      12.468
      12.472
      12.476
      12.48
      12.484
      12.488
      12.492
      12.496
      12.5
      12.504
      12.508
      12.512
      12.516
      12.52
      12.524
      12.528
      12.532
      12.536
      12.54
      12.544
      12.548
      12.552
      12.556
      12.56
      12.564
      12.568
      12.572
      12.576
      12.58
      12.584
      12.588
      12.592
      12.596
      12.6
      12.604
    );
}

RBCPath25
{
  edges
    71
    (
      17473
      17473
      17473
      17473
      17473
      17473
      17473
      17473
      17473
      17473
      17473
      17473
      17473
      17473
      17473
      17473
      17473
      17473
      17473
      17473
      17473
      17473
      17473
      16946
      16946
      16946
      16946
      16946
      16946
      16946
      16946
      16946
      16946
      16946
      16946
      16946
      16946
      16946
      16946
      16946
      16946
      16946
      16946
      16946
      16946
      16946
      16946
      16946
      16946
      16946
      16946
      16946
      16946
      16946
      16946
      16946
      16946
      16946
      16946
      16946
      16946
      16946
      16946
      16946
      16946
      16946
      16946
      16946
      16946
      16946
      16946
    );
  index 25;
  sCoords
    71
    (
      0.00010428819748
      9.97016049778e-05
      9.51150124757e-05
      9.05284199736e-05
      8.59261658462e-05
      8.13239117188e-05
      7.67216575914e-05
      7.21194034639e-05
      6.75171493365e-05
      6.29148952091e-05
      5.82967640744e-05
      5.36786329397e-05
      4.9060501805e-05
      4.44423706703e-05
      3.98401165429e-05
      3.52378624155e-05
      3.0635608288e-05
      2.60333541606e-05
      2.14311000332e-05
      1.68288459058e-05
      1.22422534037e-05
      7.65566090159e-06
      3.06906839948e-06
      0.000141570184076
      0.000138452970984
      0.00013535226129
      0.000132325371824
      0.000129242274633
      0.000126163317167
      0.000123085369307
      0.000120027697776
      0.000116968472927
      0.000113966881632
      0.000110929129221
      0.000107829480984
      0.00010478483986
      0.000101690138833
      9.85957039828e-05
      9.56566058044e-05
      9.26526299585e-05
      8.96837882311e-05
      8.66920749359e-05
      8.3667512777e-05
      8.07549759517e-05
      7.78731239278e-05
      7.48575403415e-05
      7.18167954486e-05
      6.88755530084e-05
      6.59602583144e-05
      6.29511429454e-05
      5.99231968172e-05
      5.69251083127e-05
      5.40203586437e-05
      5.10214105489e-05
      4.816503738e-05
      4.52943385318e-05
      4.23142291002e-05
      3.92460311247e-05
      3.62410019087e-05
      3.31460399508e-05
      3.01326564656e-05
      2.72870213664e-05
      2.43324003712e-05
      2.15373280624e-05
      1.86408833942e-05
      1.56401456452e-05
      1.26446366363e-05
      9.76102081732e-06
      6.94503591063e-06
      4.06723155486e-06
      1.18338897163e-06
    );
  times
    71
    (
      12.156
      12.16
      12.164
      12.168
      12.172
      12.176
      12.18
      12.184
      12.188
      12.192
      12.196
      12.2
      12.204
      12.208
      12.212
      12.216
      12.22
      12.224
      12.228
      12.232
      12.236
      12.24
      12.244
      12.248
      12.252
      12.256
      12.26
      12.264
      12.268
      12.272
      12.276
      12.28
      12.284
      12.288
      12.292
      12.296
      12.3
      12.304
      12.308
      12.312
      12.316
      12.32
      12.324
      12.328
      12.332
      12.336
      12.34
      12.344
      12.348
      12.352
      12.356
      12.36
      12.364
      12.368
      12.372
      12.376
      12.38
      12.384
      12.388
      12.392
      12.396
      12.4
      12.404
      12.408
      12.412
      12.416
      12.42
      12.424
      12.428
      12.432
      12.436
    );
}

RBCPath24
{
  edges
    120
    (
      17265
      17265
      17265
      17265
      17265
      17265
      17265
      17265
      17265
      17265
      17265
      17265
      17265
      17265
      17265
      17265
      17265
      17265
      17265
      17265
      17265
      17265
      17265
      17265
      17265
      17265
      17265
      17265
      17265
      17265
      17265
      17265
      17265
      17265
      17265
      17265
      17265
      17265
      17265
      17265
      17265
      17265
      17265
      17265
      17265
      17265
      17265
      17062
      17062
      17062
      17062
      17062
      17062
      17062
      17062
      17062
      17062
      17062
      17062
      17062
      17062
      17062
      17062
      17062
      17062
      17062
      17062
      17062
      17062
      17062
      17062
      17062
      17062
      17062
      17062
      17062
      17062
      17062
      17062
      17062
      17062
      17062
      17062
      17062
      17062
      17062
      17062
      17062
      17062
      17062
      17062
      17062
      17062
      17062
      17062
      17062
      17062
      17062
      17062
      17062
      17062
      17062
      17062
      17062
      17062
      17062
      17062
      17062
      17062
      17062
      17062
      17062
      17062
      17062
      17062
      17062
      17062
      17062
      17062
      17062
    );
  index 24;
  sCoords
    120
    (
      0.000128678671109
      0.000125946627115
      0.000123214583121
      0.000120482539126
      0.000117750495132
      0.000115018451138
      0.000112286407144
      0.000109533612004
      0.000106780816863
      0.000104028021722
      0.000101275226582
      9.85224314409e-05
      9.57696363003e-05
      9.30168411596e-05
      9.02640460189e-05
      8.7489867254e-05
      8.47156884891e-05
      8.19415097242e-05
      7.91673309593e-05
      7.63931521944e-05
      7.36189734294e-05
      7.08447946645e-05
      6.80706158996e-05
      6.52964371347e-05
      6.25222583698e-05
      5.97480796049e-05
      5.697390084e-05
      5.4199722075e-05
      5.14255433101e-05
      4.86513645452e-05
      4.58771857803e-05
      4.31030070154e-05
      4.03288282505e-05
      3.75546494856e-05
      3.47804707207e-05
      3.20062919557e-05
      2.92321131908e-05
      2.64579344259e-05
      2.3683755661e-05
      2.0887523932e-05
      1.8113345167e-05
      1.53391664021e-05
      1.25649876372e-05
      9.7908088723e-06
      7.01663010739e-06
      4.24245134247e-06
      1.48965620181e-06
      8.46016278571e-05
      8.35741309165e-05
      8.23949798523e-05
      8.13538434963e-05
      8.03119732944e-05
      7.88418412705e-05
      7.76601154236e-05
      7.63802439702e-05
      7.51642632298e-05
      7.40400443377e-05
      7.26028876304e-05
      7.11826277464e-05
      7.01407028177e-05
      6.91699607989e-05
      6.79177201179e-05
      6.65920716393e-05
      6.55318477193e-05
      6.45248971948e-05
      6.33267253198e-05
      6.19712443061e-05
      6.08822565312e-05
      5.94893363387e-05
      5.8137443019e-05
      5.70988873067e-05
      5.62058117761e-05
      5.51340278732e-05
      5.43166693229e-05
      5.32685201705e-05
      5.18448475504e-05
      5.07332962882e-05
      4.91648184467e-05
      4.79853057039e-05
      4.70058267958e-05
      4.60113734595e-05
      4.47946836412e-05
      4.33820043395e-05
      4.2148473322e-05
      4.09324406502e-05
      3.9977555675e-05
      3.90302105093e-05
      3.8156455855e-05
      3.73791165897e-05
      3.64232828029e-05
      3.50303225174e-05
      3.37759111365e-05
      3.21373466682e-05
      3.0850848036e-05
      2.97921077535e-05
      2.86843290126e-05
      2.75069824617e-05
      2.63593486156e-05
      2.47557511546e-05
      2.33951824698e-05
      2.2165901462e-05
      2.06517660702e-05
      1.9396776321e-05
      1.86329740497e-05
      1.78793281785e-05
      1.66432179035e-05
      1.550699695e-05
      1.42564133495e-05
      1.27942526684e-05
      1.15625041877e-05
      1.02627000529e-05
      8.90337982714e-06
      7.85032364732e-06
      6.72711762405e-06
      5.59458299596e-06
      4.75382093218e-06
      3.78287594709e-06
      2.56767374536e-06
      1.41284153546e-06
      9.77450085505e-08
    );
  times
    120
    (
      12.1
      12.104
      12.108
      12.112
      12.116
      12.12
      12.124
      12.128
      12.132
      12.136
      12.14
      12.144
      12.148
      12.152
      12.156
      12.16
      12.164
      12.168
      12.172
      12.176
      12.18
      12.184
      12.188
      12.192
      12.196
      12.2
      12.204
      12.208
      12.212
      12.216
      12.22
      12.224
      12.228
      12.232
      12.236
      12.24
      12.244
      12.248
      12.252
      12.256
      12.26
      12.264
      12.268
      12.272
      12.276
      12.28
      12.284
      12.288
      12.292
      12.296
      12.3
      12.304
      12.308
      12.312
      12.316
      12.32
      12.324
      12.328
      12.332
      12.336
      12.34
      12.344
      12.348
      12.352
      12.356
      12.36
      12.364
      12.368
      12.372
      12.376
      12.38
      12.384
      12.388
      12.392
      12.396
      12.4
      12.404
      12.408
      12.412
      12.416
      12.42
      12.424
      12.428
      12.432
      12.436
      12.44
      12.444
      12.448
      12.452
      12.456
      12.46
      12.464
      12.468
      12.472
      12.476
      12.48
      12.484
      12.488
      12.492
      12.496
      12.5
      12.504
      12.508
      12.512
      12.516
      12.52
      12.524
      12.528
      12.532
      12.536
      12.54
      12.544
      12.548
      12.552
      12.556
      12.56
      12.564
      12.568
      12.572
      12.576
    );
}

RBCPath27
{
  edges
    73
    (
      17473
      17473
      17473
      17473
      17473
      17473
      17473
      17473
      17473
      17473
      17473
      17473
      17473
      17473
      17473
      17473
      17473
      17473
      17473
      17473
      17473
      17473
      17473
      17473
      17473
      16946
      16946
      16946
      16946
      16946
      16946
      16946
      16946
      16946
      16946
      16946
      16946
      16946
      16946
      16946
      16946
      16946
      16946
      16946
      16946
      16946
      16946
      16946
      16946
      16946
      16946
      16946
      16946
      16946
      16946
      16946
      16946
      16946
      16946
      16946
      16946
      16946
      16946
      16946
      16946
      16946
      16946
      16946
      16946
      16946
      16946
      16946
      16946
    );
  index 27;
  sCoords
    73
    (
      0.000110733368285
      0.000106131114158
      0.00010152886003
      9.69266059031e-05
      9.23243517756e-05
      8.77220976482e-05
      8.31198435208e-05
      7.85332510187e-05
      7.39466585166e-05
      6.93600660145e-05
      6.47734735124e-05
      6.0171219385e-05
      5.55689652576e-05
      5.09667111302e-05
      4.63644570027e-05
      4.17622028753e-05
      3.71599487479e-05
      3.25733562458e-05
      2.79867637437e-05
      2.34001712416e-05
      1.88135787395e-05
      1.42269862374e-05
      9.64039373532e-06
      5.05380123322e-06
      4.67208731119e-07
      0.000140079997885
      0.000137076022039
      0.000134107180312
      0.000131115467017
      0.000128090904858
      0.000125178368033
      0.000122296516009
      0.000119280932422
      0.00011624018753
      0.000113298945089
      0.000110383650395
      0.000107374535026
      0.000104346588898
      0.000101348500394
      9.84437507246e-05
      9.54448026298e-05
      9.25884294609e-05
      8.97177306127e-05
      8.67376211811e-05
      8.36694232055e-05
      8.06643939896e-05
      7.75694320317e-05
      7.45560485465e-05
      7.17104134473e-05
      6.87557924521e-05
      6.59607201433e-05
      6.30642754751e-05
      6.00635377261e-05
      5.70680287171e-05
      5.41844128982e-05
      5.13684279915e-05
      4.84906236357e-05
      4.56067810525e-05
      4.26328231394e-05
      3.9620864996e-05
      3.65832106687e-05
      3.35118902135e-05
      3.05382597108e-05
      2.77154702805e-05
      2.48448711993e-05
      2.21068334335e-05
      1.92468371639e-05
      1.62733846212e-05
      1.33517819763e-05
      1.04541599896e-05
      7.54629576272e-06
      4.79619178522e-06
      1.96222484961e-06
    );
  times
    73
    (
      12.208
      12.212
      12.216
      12.22
      12.224
      12.228
      12.232
      12.236
      12.24
      12.244
      12.248
      12.252
      12.256
      12.26
      12.264
      12.268
      12.272
      12.276
      12.28
      12.284
      12.288
      12.292
      12.296
      12.3
      12.304
      12.308
      12.312
      12.316
      12.32
      12.324
      12.328
      12.332
      12.336
      12.34
      12.344
      12.348
      12.352
      12.356
      12.36
      12.364
      12.368
      12.372
      12.376
      12.38
      12.384
      12.388
      12.392
      12.396
      12.4
      12.404
      12.408
      12.412
      12.416
      12.42
      12.424
      12.428
      12.432
      12.436
      12.44
      12.444
      12.448
      12.452
      12.456
      12.46
      12.464
      12.468
      12.472
      12.476
      12.48
      12.484
      12.488
      12.492
      12.496
    );
}

RBCPath26
{
  edges
    104
    (
      17265
      17265
      17265
      17265
      17265
      17265
      17265
      17265
      17265
      17265
      17265
      17265
      17265
      17265
      17265
      17265
      17265
      17265
      17265
      17265
      17265
      17265
      17265
      17265
      17265
      17265
      17265
      17265
      17265
      17265
      17265
      17265
      17265
      17265
      17265
      17265
      17265
      17265
      17265
      17265
      17265
      17265
      17265
      17265
      17265
      17265
      17265
      17062
      17062
      17062
      17062
      17062
      17062
      17062
      17062
      17062
      17062
      17062
      17062
      17062
      17062
      17062
      17062
      17062
      17062
      17062
      17062
      17062
      17062
      17062
      17062
      17062
      17062
      17062
      17062
      17062
      17062
      17062
      17062
      17062
      17062
      17062
      17062
      17062
      17062
      17062
      17062
      17062
      17062
      17062
      17062
      17062
      17062
      17062
      17062
      17062
      17062
      17062
      17062
      17062
      17062
      17062
      17062
      17062
    );
  index 26;
  sCoords
    104
    (
      0.00012908117913
      0.000126307000365
      0.0001235328216
      0.000120758642835
      0.00011798446407
      0.000115210285305
      0.00011243610654
      0.000109661927775
      0.00010688774901
      0.000104113570245
      0.000101339391481
      9.85652127156e-05
      9.57910339507e-05
      9.30168551858e-05
      9.02426764209e-05
      8.7468497656e-05
      8.46722659269e-05
      8.1898087162e-05
      7.91239083971e-05
      7.63497296322e-05
      7.35755508673e-05
      7.08013721024e-05
      6.80271933375e-05
      6.52743981968e-05
      6.25216030561e-05
      5.97474242912e-05
      5.69946291506e-05
      5.42418340099e-05
      5.14890388692e-05
      4.87362437286e-05
      4.59834485879e-05
      4.32306534472e-05
      4.04778583066e-05
      3.77250631659e-05
      3.49722680253e-05
      3.22194728846e-05
      2.94666777439e-05
      2.67138826033e-05
      2.39610874626e-05
      2.12082923219e-05
      1.84554971813e-05
      1.57027020406e-05
      1.29499068999e-05
      1.02178629059e-05
      7.4858189118e-06
      4.75377491772e-06
      2.02173092365e-06
      8.50409740483e-05
      8.41478985176e-05
      8.30761146148e-05
      8.22587560645e-05
      8.12106069121e-05
      7.9786934292e-05
      7.86753830298e-05
      7.71069051883e-05
      7.59273924455e-05
      7.49479135374e-05
      7.39534602011e-05
      7.27367703828e-05
      7.13240910811e-05
      7.00905600636e-05
      6.88745273918e-05
      6.79196424166e-05
      6.69722972509e-05
      6.60985425966e-05
      6.53212033312e-05
      6.43653695445e-05
      6.2972409259e-05
      6.1717997878e-05
      6.00794334098e-05
      5.87929347776e-05
      5.77341944951e-05
      5.66264157542e-05
      5.54490692033e-05
      5.43014353572e-05
      5.26978378962e-05
      5.13372692114e-05
      5.01079882036e-05
      4.85938528117e-05
      4.73388630626e-05
      4.65750607913e-05
      4.582141492e-05
      4.45853046451e-05
      4.34490836916e-05
      4.21985000911e-05
      4.073633941e-05
      3.95045909293e-05
      3.82047867945e-05
      3.68454665687e-05
      3.57924103889e-05
      3.46692043656e-05
      3.35366697375e-05
      3.26959076738e-05
      3.17249626887e-05
      3.05097604869e-05
      2.9354928277e-05
      2.80398317501e-05
      2.66640117146e-05
      2.55381109308e-05
      2.44499857994e-05
      2.34147572419e-05
      2.26785618798e-05
      2.20072088901e-05
      2.11994840029e-05
    );
  times
    104
    (
      12.192
      12.196
      12.2
      12.204
      12.208
      12.212
      12.216
      12.22
      12.224
      12.228
      12.232
      12.236
      12.24
      12.244
      12.248
      12.252
      12.256
      12.26
      12.264
      12.268
      12.272
      12.276
      12.28
      12.284
      12.288
      12.292
      12.296
      12.3
      12.304
      12.308
      12.312
      12.316
      12.32
      12.324
      12.328
      12.332
      12.336
      12.34
      12.344
      12.348
      12.352
      12.356
      12.36
      12.364
      12.368
      12.372
      12.376
      12.38
      12.384
      12.388
      12.392
      12.396
      12.4
      12.404
      12.408
      12.412
      12.416
      12.42
      12.424
      12.428
      12.432
      12.436
      12.44
      12.444
      12.448
      12.452
      12.456
      12.46
      12.464
      12.468
      12.472
      12.476
      12.48
      12.484
      12.488
      12.492
      12.496
      12.5
      12.504
      12.508
      12.512
      12.516
      12.52
      12.524
      12.528
      12.532
      12.536
      12.54
      12.544
      12.548
      12.552
      12.556
      12.56
      12.564
      12.568
      12.572
      12.576
      12.58
      12.584
      12.588
      12.592
      12.596
      12.6
      12.604
    );
}

RBCPath21
{
  edges
    136
    (
      17265
      17265
      17265
      17265
      17265
      17265
      17265
      17265
      17265
      17265
      17265
      17265
      17265
      17265
      17265
      17265
      17265
      17265
      17265
      17265
      17265
      17265
      17265
      17265
      17265
      17265
      17265
      17265
      17265
      17265
      17265
      17265
      17265
      17265
      17265
      17265
      17265
      17265
      17265
      17265
      17265
      17265
      17265
      17265
      17265
      17265
      17265
      17282
      17282
      17282
      17282
      17282
      17282
      17282
      17282
      17282
      17282
      17282
      17282
      17282
      17282
      17282
      17282
      17282
      17282
      17282
      17282
      17282
      17282
      17282
      17282
      17282
      17282
      17282
      17282
      17282
      17282
      17282
      17282
      17282
      17282
      17282
      17282
      17282
      17282
      17282
      17282
      17282
      17282
      16946
      16946
      16946
      16946
      16946
      16946
      16946
      16946
      16946
      16946
      16946
      16946
      16946
      16946
      16946
      16946
      16946
      16946
      16946
      16946
      16946
      16946
      16946
      16946
      16946
      16946
      16946
      16946
      16946
      16946
      16946
      16946
      16946
      16946
      16946
      16946
      16946
      16946
      16946
      16946
      16946
      16946
      16946
      16946
      16946
      16946
      16946
    );
  index 21;
  sCoords
    136
    (
      0.000128335048611
      0.000125603004617
      0.000122870960623
      0.000120118165482
      0.000117365370341
      0.000114612575201
      0.00011185978006
      0.000109106984919
      0.000106354189779
      0.000103601394638
      0.000100869350644
      9.81373066497e-05
      9.54052626557e-05
      9.26732186616e-05
      8.99411746675e-05
      8.72091306734e-05
      8.44563355328e-05
      8.17035403921e-05
      7.89507452515e-05
      7.61979501108e-05
      7.34451549701e-05
      7.06923598295e-05
      6.79395646888e-05
      6.51867695481e-05
      6.24125907832e-05
      5.96384120183e-05
      5.68642332534e-05
      5.40900544885e-05
      5.13158757236e-05
      4.85416969587e-05
      4.57675181937e-05
      4.29933394288e-05
      4.02191606639e-05
      3.7444981899e-05
      3.46708031341e-05
      3.18966243692e-05
      2.91224456043e-05
      2.63482668393e-05
      2.35740880744e-05
      2.07999093095e-05
      1.80257305446e-05
      1.52515517797e-05
      1.24773730148e-05
      9.70319424987e-06
      6.92901548495e-06
      4.15483672004e-06
      1.38065795512e-06
      5.85140533766e-05
      5.69944077348e-05
      5.5570636051e-05
      5.4073864631e-05
      5.2632798766e-05
      5.11930276208e-05
      4.97792589012e-05
      4.83280728616e-05
      4.69526456341e-05
      4.55818092949e-05
      4.41306734822e-05
      4.27509001911e-05