/*--------------------------------*- C++ -*----------------------------------*\
| =========                 |                                                 |
| \\      /  F ield         | OpenFOAM: The Open Source CFD Toolbox           |
|  \\    /   O peration     | Version:  dev                                   |
|   \\  /    A nd           | Web:      www.OpenFOAM.org                      |
|    \\/     M anipulation  |                                                 |
\*---------------------------------------------------------------------------*/
FoamFile
{
    version     2.0;
    format      ascii;
    class       dictionary;
    object      topoSetDict;
}

// * * * * * * * * * * * * * * * * * * * * * * * * * * * * * * * * * * * * * //


actions
(
    {
        name    graphNeighbours;
        type    cellSet;
        action  new;
        source  geometricEdgeGraphToCell;
        sourceInfo
        {
            graphDict            graphDict;
            maxDistance          0.6;
            samplePointsPerEdge  50;
        }
    }
);


