/*--------------------------------*- C++ -*----------------------------------*\
| =========                 |                                                 |
| \\      /  F ield         | OpenFOAM: The Open Source CFD Toolbox           |
|  \\    /   O peration     | Version:  2.3.0                                 |
|   \\  /    A nd           | Web:      www.OpenFOAM.org                      |
|    \\/     M anipulation  |                                                 |
\*---------------------------------------------------------------------------*/
FoamFile
{
    version     2.0;
    format      ascii;
    class       dictionary;
    location    "constant";
    object      edgeVelocities;
}
// * * * * * * * * * * * * * * * * * * * * * * * * * * * * * * * * * * * * * //

edgeVelocities
5
(
 (0    8(1.5e-3 7.07e-4 7.07e-4 1e-3 1e-3 7.07e-4 7.07e-4 1.5e-3))
 (1e-2 8(1.5e-3 7.07e-4 7.07e-4 1e-3 1e-3 7.07e-4 7.07e-4 1.5e-3))
 (2e-2 8(1.5e-3 7.07e-4 7.07e-4 1e-3 1e-3 7.07e-4 7.07e-4 1.5e-3))
 (3e-2 8(1.5e-3 7.07e-4 7.07e-4 1e-3 1e-3 7.07e-4 7.07e-4 1.5e-3))
 (4e-2 8(1.5e-3 7.07e-4 7.07e-4 1e-3 1e-3 7.07e-4 7.07e-4 1.5e-3))
);


